/*---------------------------------------------------------------------------*\
| =========                 |                                                 |
| \\      /  F ield         | OpenFOAM: The Open Source CFD Toolbox           |
|  \\    /   O peration     | Version:  2406                                  |
|   \\  /    A nd           | Website:  www.openfoam.com                      |
|    \\/     M anipulation  |                                                 |
\*---------------------------------------------------------------------------*/
Build  : _be01ca78-20240625 OPENFOAM=2406 version=2406
Arch   : "LSB;label=32;scalar=64"
Exec   : rhoSimpleFoam
Date   : Nov 09 2024
Time   : 13:36:45
Host   : jakub-Lenovo-ideapad-330-15ICH
PID    : 69993
I/O    : uncollated
Case   : /home/jakub/AE4202/CFD_assignment_SimpleFoam
nProcs : 1
trapFpe: Floating point exception trapping enabled (FOAM_SIGFPE).
fileModificationChecking : Monitoring run-time modified files using timeStampMaster (fileModificationSkew 5, maxFileModificationPolls 20)
allowSystemOperations : Allowing user-supplied system call operations

// * * * * * * * * * * * * * * * * * * * * * * * * * * * * * * * * * * * * * //
Create time

Create mesh for time = 4


SIMPLE: convergence criteria
    field p	 tolerance 0.0001
    field U	 tolerance 0.0001
    field "(k|omega|e)"	 tolerance 0.0001

Reading thermophysical properties

Selecting thermodynamics package 
{
    type            hePsiThermo;
    mixture         pureMixture;
    transport       sutherland;
    thermo          hConst;
    equationOfState perfectGas;
    specie          specie;
    energy          sensibleInternalEnergy;
}

Reading field U

Reading/calculating face flux field phi

pressureControl
    pMax 2.0316776
    pMin 0.099991102

Creating turbulence model

Selecting turbulence model type RAS
Selecting RAS turbulence model kOmegaSST
Selecting patchDistMethod meshWave
RAS
{
    RASModel        kOmegaSST;
    turbulence      on;
    printCoeffs     on;
    alphaK1         0.85;
    alphaK2         1;
    alphaOmega1     0.5;
    alphaOmega2     0.856;
    gamma1          0.55555556;
    gamma2          0.44;
    beta1           0.075;
    beta2           0.0828;
    betaStar        0.09;
    a1              0.31;
    b1              1;
    c1              10;
    F3              false;
    decayControl    false;
    kInf            0;
    omegaInf        0;
}

No MRF models present

No finite volume options present

Starting time loop

fieldAverage fieldAverage1:
    Restarting averaging for fields:
        U: starting averaging at time 4
        p: starting averaging at time 4
        nut: starting averaging at time 4
        T: starting averaging at time 4
        k: starting averaging at time 4

forceCoeffs forces:
    p: p
    U: U
    rho: rhoInf
    Freestream density (rhoInf) set to 1
    Not including porosity effects
    magUInf: 0.17748239
    lRef   : 1
    Aref   : 1
    rhoInf : 1
    Selecting all coefficients
    - Drag force: Cd
    - Drag force front: Cd(f)
    - Drag force rear: Cd(r)
    - Lift force: Cl
    - Lift force front: Cl(f)
    - Lift force rear: Cl(r)
    - Pitch moment: CmPitch
    - Roll moment: CmRoll
    - Yaw moment: CmYaw
    - Side force: Cs
    - Side force front: Cs(f)
    - Side force rear: Cs(r)


Sampled set:
    top -> raw
    bottom -> raw

Time = 5

DILUPBiCGStab:  Solving for Ux, Initial residual = 0.031694749, Final residual = 0.00014543181, No Iterations 1
DILUPBiCGStab:  Solving for Uy, Initial residual = 0.079612969, Final residual = 0.00021870501, No Iterations 1
DILUPBiCGStab:  Solving for e, Initial residual = 0.09310615, Final residual = 0.004326547, No Iterations 1
GAMG:  Solving for p, Initial residual = 0.097791649, Final residual = 0.00094425562, No Iterations 64
time step continuity errors : sum local = 8.2002638e-05, global = -1.2437929e-05, cumulative = -4.3492637e-05
DILUPBiCGStab:  Solving for omega, Initial residual = 0.0016253238, Final residual = 3.346561e-05, No Iterations 1
DILUPBiCGStab:  Solving for k, Initial residual = 0.07627449, Final residual = 0.0011159663, No Iterations 1
ExecutionTime = 7.21 s  ClockTime = 7 s

forceCoeffs forces write:
    Coefficient	Total	Pressure	Viscous	Internal
    Cd:	-26.021058	-26.251355	0.23029696	0
    Cd(f):	-14.152752	-14.268689	0.11593664	0
    Cd(r):	-11.868306	-11.982666	0.11436032	0
    Cl:	2.2844465	2.2860228	-0.0015763157	0
    Cl(f):	1.1420668	1.1430114	-0.00094463775	0
    Cl(r):	1.1423797	1.1430114	-0.000631678	0
    CmPitch:	-0.00015647992	-4.1853192e-11	-0.00015647987	0
    CmRoll:	-1.1422232	-1.1430114	0.00078815787	0
    CmYaw:	-13.010529	-13.125677	0.11514848	0
    Cs:	-5.5264185e-20	-1.6475754e-20	-3.8788431e-20	0
    Cs(f):	-13.010529	-13.125677	0.11514848	0
    Cs(r):	13.010529	13.125677	-0.11514848	0

    writing force and moment coefficient files.

Time = 6

DILUPBiCGStab:  Solving for Ux, Initial residual = 0.02617155, Final residual = 0.00016249795, No Iterations 1
DILUPBiCGStab:  Solving for Uy, Initial residual = 0.068480611, Final residual = 0.00024796101, No Iterations 1
DILUPBiCGStab:  Solving for e, Initial residual = 0.077748062, Final residual = 0.0045219354, No Iterations 1
GAMG:  Solving for p, Initial residual = 0.35258311, Final residual = 0.0034074168, No Iterations 50
time step continuity errors : sum local = 7.117007e-05, global = 1.0183446e-05, cumulative = -3.3309192e-05
DILUPBiCGStab:  Solving for omega, Initial residual = 0.0013430333, Final residual = 2.8565048e-05, No Iterations 1
DILUPBiCGStab:  Solving for k, Initial residual = 0.066299723, Final residual = 0.00094922543, No Iterations 1
ExecutionTime = 8.71 s  ClockTime = 8 s

forceCoeffs forces write:
    Coefficient	Total	Pressure	Viscous	Internal
    Cd:	-14.215529	-14.413938	0.19840908	0
    Cd(f):	-7.3582801	-7.4579256	0.09964546	0
    Cd(r):	-6.857249	-6.9560126	0.098763621	0
    Cl:	0.5010311	0.50191294	-0.00088183843	0
    Cl(f):	0.25032963	0.25095647	-0.00062684331	0
    Cl(r):	0.25070147	0.25095647	-0.00025499512	0
    CmPitch:	-0.00018592414	-3.8330228e-11	-0.0001859241	0
    CmRoll:	-0.25051555	-0.25095647	0.00044091921	0
    CmYaw:	-7.1077645	-7.2069691	0.09920454	0
    Cs:	-4.3521281e-20	2.7290706e-21	-4.6250351e-20	0
    Cs(f):	-7.1077645	-7.2069691	0.09920454	0
    Cs(r):	7.1077645	7.2069691	-0.09920454	0

    writing force and moment coefficient files.

Time = 7

DILUPBiCGStab:  Solving for Ux, Initial residual = 0.017749496, Final residual = 0.00010925894, No Iterations 1
DILUPBiCGStab:  Solving for Uy, Initial residual = 0.048207633, Final residual = 0.00016551319, No Iterations 1
DILUPBiCGStab:  Solving for e, Initial residual = 0.054901897, Final residual = 0.0032474681, No Iterations 1
GAMG:  Solving for p, Initial residual = 0.11653948, Final residual = 0.0011049003, No Iterations 32
time step continuity errors : sum local = 5.5633919e-05, global = 1.0161771e-05, cumulative = -2.3147421e-05
DILUPBiCGStab:  Solving for omega, Initial residual = 0.0011250056, Final residual = 2.4677791e-05, No Iterations 1
DILUPBiCGStab:  Solving for k, Initial residual = 0.066540966, Final residual = 0.00086995636, No Iterations 1
ExecutionTime = 9.85 s  ClockTime = 10 s

forceCoeffs forces write:
    Coefficient	Total	Pressure	Viscous	Internal
    Cd:	-0.72321565	-0.89880959	0.17559394	0
    Cd(f):	0.19842586	0.11018595	0.088239913	0
    Cd(r):	-0.92164151	-1.0089955	0.087354027	0
    Cl:	-1.1200674	-1.1191815	-0.00088588583	0
    Cl(f):	-0.56025632	-0.55959075	-0.00066557879	0
    Cl(r):	-0.55981105	-0.55959075	-0.00022030704	0
    CmPitch:	-0.00022263589	-1.1942886e-11	-0.00022263587	0
    CmRoll:	0.56003369	0.55959075	0.00044294292	0
    CmYaw:	-0.36160782	-0.44940479	0.08779697	0
    Cs:	-2.5178866e-20	3.2724706e-20	-5.7903572e-20	0
    Cs(f):	-0.36160782	-0.44940479	0.08779697	0
    Cs(r):	0.36160782	0.44940479	-0.08779697	0

    writing force and moment coefficient files.

Time = 8

DILUPBiCGStab:  Solving for Ux, Initial residual = 0.012619257, Final residual = 4.9395448e-05, No Iterations 1
DILUPBiCGStab:  Solving for Uy, Initial residual = 0.030555441, Final residual = 9.0345128e-05, No Iterations 1
DILUPBiCGStab:  Solving for e, Initial residual = 0.043439143, Final residual = 0.0018473598, No Iterations 1
GAMG:  Solving for p, Initial residual = 0.10244638, Final residual = 0.00099756764, No Iterations 47
time step continuity errors : sum local = 4.1417246e-05, global = 6.3097996e-06, cumulative = -1.6837621e-05
DILUPBiCGStab:  Solving for omega, Initial residual = 0.00096262308, Final residual = 2.1858097e-05, No Iterations 1
DILUPBiCGStab:  Solving for k, Initial residual = 0.064514426, Final residual = 0.00082123548, No Iterations 1
ExecutionTime = 11.27 s  ClockTime = 11 s

forceCoeffs forces write:
    Coefficient	Total	Pressure	Viscous	Internal
    Cd:	6.0505782	5.892294	0.1582842	0
    Cd(f):	3.6834419	3.6037777	0.079664191	0
    Cd(r):	2.3671363	2.2885163	0.078620014	0
    Cl:	-1.3163055	-1.3152614	-0.0010441775	0
    Cl(f):	-0.65840538	-0.65763068	-0.00077469743	0
    Cl(r):	-0.65790017	-0.65763068	-0.00026948011	0
    CmPitch:	-0.00025260865	3.9051093e-12	-0.00025260866	0
    CmRoll:	0.65815277	0.65763068	0.00052208877	0
    CmYaw:	3.0252891	2.946147	0.079142102	0
    Cs:	-1.6712176e-20	4.9168347e-20	-6.5880523e-20	0
    Cs(f):	3.0252891	2.946147	0.079142102	0
    Cs(r):	-3.0252891	-2.946147	-0.079142102	0

    writing force and moment coefficient files.

Time = 9

DILUPBiCGStab:  Solving for Ux, Initial residual = 0.0099002545, Final residual = 5.1521883e-05, No Iterations 1
DILUPBiCGStab:  Solving for Uy, Initial residual = 0.022990469, Final residual = 7.396838e-05, No Iterations 1
DILUPBiCGStab:  Solving for e, Initial residual = 0.039206364, Final residual = 0.0018883125, No Iterations 1
GAMG:  Solving for p, Initial residual = 0.34277739, Final residual = 0.0033841954, No Iterations 62
time step continuity errors : sum local = 3.5078678e-05, global = 5.8678647e-06, cumulative = -1.0969757e-05
DILUPBiCGStab:  Solving for omega, Initial residual = 0.0008369345, Final residual = 1.9414193e-05, No Iterations 1
DILUPBiCGStab:  Solving for k, Initial residual = 0.06109166, Final residual = 0.00078381361, No Iterations 1
ExecutionTime = 12.98 s  ClockTime = 13 s

forceCoeffs forces write:
    Coefficient	Total	Pressure	Viscous	Internal
    Cd:	6.1778388	6.033151	0.14468781	0
    Cd(f):	3.3717508	3.2988808	0.072870047	0
    Cd(r):	2.8060879	2.7342702	0.071817765	0
    Cl:	-0.56566288	-0.5646106	-0.0010522819	0
    Cl(f):	-0.2830964	-0.2823053	-0.00079110171	0
    Cl(r):	-0.28256648	-0.2823053	-0.00026118021	0
    CmPitch:	-0.00026496074	7.7332811e-12	-0.00026496075	0
    CmRoll:	0.28283144	0.2823053	0.00052614096	0
    CmYaw:	3.0889194	3.0165755	0.072343906	0
    Cs:	-1.8482143e-20	4.9983223e-20	-6.8465367e-20	0
    Cs(f):	3.0889194	3.0165755	0.072343906	0
    Cs(r):	-3.0889194	-3.0165755	-0.072343906	0

    writing force and moment coefficient files.

Time = 10

DILUPBiCGStab:  Solving for Ux, Initial residual = 0.0073391267, Final residual = 4.693655e-05, No Iterations 1
DILUPBiCGStab:  Solving for Uy, Initial residual = 0.018832503, Final residual = 5.7519632e-05, No Iterations 1
DILUPBiCGStab:  Solving for e, Initial residual = 0.031738726, Final residual = 0.0017006077, No Iterations 1
GAMG:  Solving for p, Initial residual = 0.13652133, Final residual = 0.0013398932, No Iterations 36
time step continuity errors : sum local = 2.6551171e-05, global = -3.9482967e-06, cumulative = -1.4918053e-05
DILUPBiCGStab:  Solving for omega, Initial residual = 0.00073690757, Final residual = 1.7489554e-05, No Iterations 1
DILUPBiCGStab:  Solving for k, Initial residual = 0.057311241, Final residual = 0.00075211342, No Iterations 1
ExecutionTime = 14.18 s  ClockTime = 14 s

forceCoeffs forces write:
    Coefficient	Total	Pressure	Viscous	Internal
    Cd:	3.1475564	3.0140919	0.13346447	0
    Cd(f):	1.4660978	1.3989135	0.067184305	0
    Cd(r):	1.6814585	1.6151784	0.066280166	0
    Cl:	0.21536071	0.21626485	-0.00090413971	0
    Cl(f):	0.10742166	0.10813242	-0.00071076915	0
    Cl(r):	0.10793905	0.10813242	-0.00019337056	0
    CmPitch:	-0.00025869929	7.0306338e-12	-0.00025869929	0
    CmRoll:	-0.10768035	-0.10813242	0.00045206985	0
    CmYaw:	1.5737782	1.5070459	0.066732235	0
    Cs:	-2.4125218e-20	4.3053471e-20	-6.7178689e-20	0
    Cs(f):	1.5737782	1.5070459	0.066732235	0
    Cs(r):	-1.5737782	-1.5070459	-0.066732235	0

    writing force and moment coefficient files.

Time = 11

DILUPBiCGStab:  Solving for Ux, Initial residual = 0.0055263677, Final residual = 2.4823771e-05, No Iterations 1
DILUPBiCGStab:  Solving for Uy, Initial residual = 0.01557221, Final residual = 3.8360938e-05, No Iterations 1
DILUPBiCGStab:  Solving for e, Initial residual = 0.030489282, Final residual = 0.0013846677, No Iterations 1
GAMG:  Solving for p, Initial residual = 0.11554592, Final residual = 0.0010557999, No Iterations 29
time step continuity errors : sum local = 2.0455714e-05, global = -3.1145868e-06, cumulative = -1.803264e-05
DILUPBiCGStab:  Solving for omega, Initial residual = 0.00065702549, Final residual = 1.5811654e-05, No Iterations 1
DILUPBiCGStab:  Solving for k, Initial residual = 0.053705384, Final residual = 0.00072413606, No Iterations 1
ExecutionTime = 15.24 s  ClockTime = 15 s

forceCoeffs forces write:
    Coefficient	Total	Pressure	Viscous	Internal
    Cd:	0.35903641	0.23520528	0.12383113	0
    Cd(f):	-0.075299585	-0.13757207	0.062272482	0
    Cd(r):	0.434336	0.37277735	0.06155865	0
    Cl:	0.50963558	0.51034942	-0.00071383191	0
    Cl(f):	0.25457607	0.25517471	-0.00059864038	0
    Cl(r):	0.25505952	0.25517471	-0.00011519153	0
    CmPitch:	-0.00024172442	5.1558693e-12	-0.00024172442	0
    CmRoll:	-0.25481779	-0.25517471	0.00035691595	0
    CmYaw:	0.17951821	0.11760264	0.061915566	0
    Cs:	-2.823441e-20	3.6593315e-20	-6.4827724e-20	0
    Cs(f):	0.17951821	0.11760264	0.061915566	0
    Cs(r):	-0.17951821	-0.11760264	-0.061915566	0

    writing force and moment coefficient files.

Time = 12

DILUPBiCGStab:  Solving for Ux, Initial residual = 0.0034837619, Final residual = 1.2179644e-05, No Iterations 1
DILUPBiCGStab:  Solving for Uy, Initial residual = 0.010726813, Final residual = 2.410856e-05, No Iterations 1
DILUPBiCGStab:  Solving for e, Initial residual = 0.028393383, Final residual = 0.0012625928, No Iterations 1
GAMG:  Solving for p, Initial residual = 0.22869964, Final residual = 0.0022640602, No Iterations 40
time step continuity errors : sum local = 1.854593e-05, global = -3.3803438e-06, cumulative = -2.1412984e-05
DILUPBiCGStab:  Solving for omega, Initial residual = 0.00059118812, Final residual = 1.4361454e-05, No Iterations 1
DILUPBiCGStab:  Solving for k, Initial residual = 0.05034289, Final residual = 0.00069944681, No Iterations 1
ExecutionTime = 16.49 s  ClockTime = 16 s

forceCoeffs forces write:
    Coefficient	Total	Pressure	Viscous	Internal
    Cd:	-0.92865362	-1.044165	0.11551138	0
    Cd(f):	-0.63174558	-0.68978897	0.058043388	0
    Cd(r):	-0.29690804	-0.35437603	0.057467988	0
    Cl:	0.33483754	0.33541294	-0.00057539995	0
    Cl(f):	0.1671946	0.16770647	-0.00051186839	0
    Cl(r):	0.16764294	0.16770647	-6.3531566e-05	0
    CmPitch:	-0.00022416841	2.1669496e-12	-0.00022416841	0
    CmRoll:	-0.16741877	-0.16770647	0.00028769998	0
    CmYaw:	-0.46432681	-0.5220825	0.057755688	0
    Cs:	-2.9611057e-20	3.3731413e-20	-6.334247e-20	0
    Cs(f):	-0.46432681	-0.5220825	0.057755688	0
    Cs(r):	0.46432681	0.5220825	-0.057755688	0

    writing force and moment coefficient files.

Time = 13

DILUPBiCGStab:  Solving for Ux, Initial residual = 0.0029309307, Final residual = 1.643156e-05, No Iterations 1
DILUPBiCGStab:  Solving for Uy, Initial residual = 0.0089555576, Final residual = 2.2276589e-05, No Iterations 1
DILUPBiCGStab:  Solving for e, Initial residual = 0.027742173, Final residual = 0.0013208698, No Iterations 1
GAMG:  Solving for p, Initial residual = 0.19419734, Final residual = 0.0019238908, No Iterations 41
time step continuity errors : sum local = 1.5826539e-05, global = 2.3535173e-06, cumulative = -1.9059467e-05
DILUPBiCGStab:  Solving for omega, Initial residual = 0.00053499114, Final residual = 1.3158253e-05, No Iterations 1
DILUPBiCGStab:  Solving for k, Initial residual = 0.047022352, Final residual = 0.00067733787, No Iterations 1
ExecutionTime = 17.74 s  ClockTime = 17 s

forceCoeffs forces write:
    Coefficient	Total	Pressure	Viscous	Internal
    Cd:	-0.74836334	-0.85681263	0.1084493	0
    Cd(f):	-0.35831472	-0.41279981	0.054485092	0
    Cd(r):	-0.39004862	-0.44401283	0.053964205	0
    Cl:	-0.031733904	-0.031213017	-0.00052088652	0
    Cl(f):	-0.016079018	-0.015606509	-0.00047250983	0
    Cl(r):	-0.015654885	-0.015606509	-4.8376693e-05	0
    CmPitch:	-0.00021206657	-3.1613477e-13	-0.00021206657	0
    CmRoll:	0.015866952	0.015606509	0.00026044326	0
    CmYaw:	-0.37418167	-0.42840632	0.054224649	0
    Cs:	-2.9181103e-20	3.4279765e-20	-6.3460868e-20	0
    Cs(f):	-0.37418167	-0.42840632	0.054224649	0
    Cs(r):	0.37418167	0.42840632	-0.054224649	0

    writing force and moment coefficient files.

Time = 14

DILUPBiCGStab:  Solving for Ux, Initial residual = 0.0028715313, Final residual = 1.4168134e-05, No Iterations 1
DILUPBiCGStab:  Solving for Uy, Initial residual = 0.0082735085, Final residual = 1.8300071e-05, No Iterations 1
DILUPBiCGStab:  Solving for e, Initial residual = 0.027373125, Final residual = 0.0012752564, No Iterations 1
GAMG:  Solving for p, Initial residual = 0.12894462, Final residual = 0.0012111665, No Iterations 26
time step continuity errors : sum local = 1.3303075e-05, global = -1.1685929e-06, cumulative = -2.0228059e-05
DILUPBiCGStab:  Solving for omega, Initial residual = 0.00048709206, Final residual = 1.2102475e-05, No Iterations 1
DILUPBiCGStab:  Solving for k, Initial residual = 0.043728643, Final residual = 0.0006551077, No Iterations 1
ExecutionTime = 18.76 s  ClockTime = 18 s

forceCoeffs forces write:
    Coefficient	Total	Pressure	Viscous	Internal
    Cd:	0.053014882	-0.049518346	0.10253323	0
    Cd(f):	0.18767193	0.13613977	0.05153216	0
    Cd(r):	-0.13465705	-0.18565811	0.051001068	0
    Cl:	-0.32232897	-0.32179788	-0.00053109255	0
    Cl(f):	-0.1613704	-0.16089894	-0.00047146314	0
    Cl(r):	-0.16095857	-0.16089894	-5.9629416e-05	0
    CmPitch:	-0.00020591686	-1.2454879e-12	-0.00020591686	0
    CmRoll:	0.16116449	0.16089894	0.00026554628	0
    CmYaw:	0.026507441	-0.024759173	0.051266614	0
    Cs:	-2.8351291e-20	3.6217105e-20	-6.4568395e-20	0
    Cs(f):	0.026507441	-0.024759173	0.051266614	0
    Cs(r):	-0.026507441	0.024759173	-0.051266614	0

    writing force and moment coefficient files.

Time = 15

DILUPBiCGStab:  Solving for Ux, Initial residual = 0.002447998, Final residual = 8.4639602e-06, No Iterations 1
DILUPBiCGStab:  Solving for Uy, Initial residual = 0.0067998453, Final residual = 1.413433e-05, No Iterations 1
DILUPBiCGStab:  Solving for e, Initial residual = 0.026519877, Final residual = 0.001187114, No Iterations 1
GAMG:  Solving for p, Initial residual = 0.15429464, Final residual = 0.001528403, No Iterations 29
time step continuity errors : sum local = 1.2436254e-05, global = -1.0179135e-06, cumulative = -2.1245973e-05
DILUPBiCGStab:  Solving for omega, Initial residual = 0.00044677063, Final residual = 1.1095975e-05, No Iterations 1
DILUPBiCGStab:  Solving for k, Initial residual = 0.040557851, Final residual = 0.00063260597, No Iterations 1
ExecutionTime = 19.82 s  ClockTime = 20 s

forceCoeffs forces write:
    Coefficient	Total	Pressure	Viscous	Internal
    Cd:	0.74339207	0.6458477	0.097544373	0
    Cd(f):	0.56352551	0.51447363	0.049051883	0
    Cd(r):	0.17986656	0.13137407	0.04849249	0
    Cl:	-0.38365895	-0.38309955	-0.00055939339	0
    Cl(f):	-0.19203239	-0.19154978	-0.00048261102	0
    Cl(r):	-0.19162656	-0.19154978	-7.6782377e-05	0
    CmPitch:	-0.00020291432	-5.7029468e-13	-0.00020291432	0
    CmRoll:	0.19182947	0.19154978	0.0002796967	0
    CmYaw:	0.37169604	0.32292385	0.048772186	0
    Cs:	-2.7994305e-20	3.7838885e-20	-6.583319e-20	0
    Cs(f):	0.37169604	0.32292385	0.048772186	0
    Cs(r):	-0.37169604	-0.32292385	-0.048772186	0

    writing force and moment coefficient files.

Time = 16

DILUPBiCGStab:  Solving for Ux, Initial residual = 0.0019799293, Final residual = 6.2677534e-06, No Iterations 1
DILUPBiCGStab:  Solving for Uy, Initial residual = 0.0054457607, Final residual = 1.1798414e-05, No Iterations 1
DILUPBiCGStab:  Solving for e, Initial residual = 0.025552052, Final residual = 0.0011364296, No Iterations 1
GAMG:  Solving for p, Initial residual = 0.33072993, Final residual = 0.0032712695, No Iterations 36
time step continuity errors : sum local = 1.1286428e-05, global = -1.5800899e-06, cumulative = -2.2826063e-05
DILUPBiCGStab:  Solving for omega, Initial residual = 0.00041098963, Final residual = 1.0380037e-05, No Iterations 1
DILUPBiCGStab:  Solving for k, Initial residual = 0.037624212, Final residual = 0.00060948005, No Iterations 1
ExecutionTime = 21 s  ClockTime = 21 s

forceCoeffs forces write:
    Coefficient	Total	Pressure	Viscous	Internal
    Cd:	0.9848395	0.89160423	0.093235265	0
    Cd(f):	0.62772424	0.58082217	0.04690207	0
    Cd(r):	0.35711526	0.31078206	0.046333196	0
    Cl:	-0.27060898	-0.27004011	-0.00056887371	0
    Cl(f):	-0.13550443	-0.13502005	-0.00048438018	0
    Cl(r):	-0.13510455	-0.13502005	-8.4493533e-05	0
    CmPitch:	-0.00019994332	6.6331545e-13	-0.00019994332	0
    CmRoll:	0.13530449	0.13502005	0.00028443685	0
    CmYaw:	0.49241975	0.44580212	0.046617633	0
    Cs:	-2.8221314e-20	3.8397913e-20	-6.6619227e-20	0
    Cs(f):	0.49241975	0.44580212	0.046617633	0
    Cs(r):	-0.49241975	-0.44580212	-0.046617633	0

    writing force and moment coefficient files.

Time = 17

DILUPBiCGStab:  Solving for Ux, Initial residual = 0.0017991485, Final residual = 6.4382299e-06, No Iterations 1
DILUPBiCGStab:  Solving for Uy, Initial residual = 0.0051793038, Final residual = 1.0567521e-05, No Iterations 1
DILUPBiCGStab:  Solving for e, Initial residual = 0.025349357, Final residual = 0.0011275267, No Iterations 1
GAMG:  Solving for p, Initial residual = 0.2761647, Final residual = 0.0026778748, No Iterations 26
time step continuity errors : sum local = 9.7572403e-06, global = 1.111132e-06, cumulative = -2.1714931e-05
DILUPBiCGStab:  Solving for omega, Initial residual = 0.00038010933, Final residual = 9.6507163e-06, No Iterations 1
DILUPBiCGStab:  Solving for k, Initial residual = 0.035008759, Final residual = 0.0005866838, No Iterations 1
ExecutionTime = 22.01 s  ClockTime = 22 s

forceCoeffs forces write:
    Coefficient	Total	Pressure	Viscous	Internal
    Cd:	0.86723133	0.77781589	0.089415438	0
    Cd(f):	0.47766973	0.43268955	0.044980186	0
    Cd(r):	0.38956159	0.34512634	0.044435252	0
    Cl:	-0.088108142	-0.087563208	-0.00054493435	0
    Cl(f):	-0.04424942	-0.043781604	-0.00046781666	0
    Cl(r):	-0.043858722	-0.043781604	-7.7117684e-05	0
    CmPitch:	-0.00019534949	1.6078686e-12	-0.00019534949	0
    CmRoll:	0.044054071	0.043781604	0.00027246717	0
    CmYaw:	0.43361566	0.38890794	0.044707719	0
    Cs:	-2.8770096e-20	3.8097348e-20	-6.6867444e-20	0
    Cs(f):	0.43361566	0.38890794	0.044707719	0
    Cs(r):	-0.43361566	-0.38890794	-0.044707719	0

    writing force and moment coefficient files.

Time = 18

DILUPBiCGStab:  Solving for Ux, Initial residual = 0.0015696742, Final residual = 4.9181835e-06, No Iterations 1
DILUPBiCGStab:  Solving for Uy, Initial residual = 0.0049457691, Final residual = 8.1421238e-06, No Iterations 1
DILUPBiCGStab:  Solving for e, Initial residual = 0.025166055, Final residual = 0.0011581552, No Iterations 1
GAMG:  Solving for p, Initial residual = 0.25243674, Final residual = 0.0023646781, No Iterations 19
time step continuity errors : sum local = 8.9328811e-06, global = 5.4129272e-07, cumulative = -2.1173638e-05
DILUPBiCGStab:  Solving for omega, Initial residual = 0.00035375453, Final residual = 8.7933447e-06, No Iterations 1
DILUPBiCGStab:  Solving for k, Initial residual = 0.032737667, Final residual = 0.00056509171, No Iterations 1
ExecutionTime = 22.89 s  ClockTime = 23 s

forceCoeffs forces write:
    Coefficient	Total	Pressure	Viscous	Internal
    Cd:	0.60097909	0.51501004	0.085969049	0
    Cd(f):	0.28577104	0.24253674	0.043234303	0
    Cd(r):	0.31520804	0.2724733	0.042734747	0
    Cl:	0.029437003	0.029936559	-0.00049955578	0
    Cl(f):	0.014529301	0.014968279	-0.00043897804	0
    Cl(r):	0.014907702	0.014968279	-6.0577734e-05	0
    CmPitch:	-0.00018920015	1.8199506e-12	-0.00018920016	0
    CmRoll:	-0.014718501	-0.014968279	0.00024977789	0
    CmYaw:	0.30048954	0.25750502	0.042984525	0
    Cs:	-2.931397e-20	3.7479084e-20	-6.6793054e-20	0
    Cs(f):	0.30048954	0.25750502	0.042984525	0
    Cs(r):	-0.30048954	-0.25750502	-0.042984525	0

    writing force and moment coefficient files.

Time = 19

DILUPBiCGStab:  Solving for Ux, Initial residual = 0.001384435, Final residual = 3.0227067e-06, No Iterations 1
DILUPBiCGStab:  Solving for Uy, Initial residual = 0.0046468888, Final residual = 6.5453799e-06, No Iterations 1
DILUPBiCGStab:  Solving for e, Initial residual = 0.025354235, Final residual = 0.0011950011, No Iterations 1
GAMG:  Solving for p, Initial residual = 0.30064706, Final residual = 0.0029860847, No Iterations 21
time step continuity errors : sum local = 9.0609168e-06, global = 7.9548659e-07, cumulative = -2.0378151e-05
DILUPBiCGStab:  Solving for omega, Initial residual = 0.0003287407, Final residual = 8.4934157e-06, No Iterations 1
DILUPBiCGStab:  Solving for k, Initial residual = 0.030747062, Final residual = 0.00054456947, No Iterations 1
ExecutionTime = 23.81 s  ClockTime = 24 s

forceCoeffs forces write:
    Coefficient	Total	Pressure	Viscous	Internal
    Cd:	0.39524417	0.31240361	0.082840558	0
    Cd(f):	0.1795914	0.13794362	0.041647776	0
    Cd(r):	0.21565277	0.17445999	0.041192781	0
    Cl:	0.036061376	0.036516371	-0.00045499483	0
    Cl(f):	0.017848191	0.018258186	-0.00040999491	0
    Cl(r):	0.018213186	0.018258186	-4.4999918e-05	0
    CmPitch:	-0.0001824975	1.4521326e-12	-0.0001824975	0
    CmRoll:	-0.018030688	-0.018258186	0.00022749742	0
    CmYaw:	0.19762209	0.15620181	0.041420279	0
    Cs:	-2.9638198e-20	3.7030688e-20	-6.6668886e-20	0
    Cs(f):	0.19762209	0.15620181	0.041420279	0
    Cs(r):	-0.19762209	-0.15620181	-0.041420279	0

    writing force and moment coefficient files.

Time = 20

DILUPBiCGStab:  Solving for Ux, Initial residual = 0.0012800643, Final residual = 3.4516099e-06, No Iterations 1
DILUPBiCGStab:  Solving for Uy, Initial residual = 0.0043171924, Final residual = 6.6411896e-06, No Iterations 1
DILUPBiCGStab:  Solving for e, Initial residual = 0.025593937, Final residual = 0.0012286689, No Iterations 1
GAMG:  Solving for p, Initial residual = 0.34330325, Final residual = 0.0033804271, No Iterations 22
time step continuity errors : sum local = 8.1619999e-06, global = 1.2252625e-06, cumulative = -1.9152889e-05
DILUPBiCGStab:  Solving for omega, Initial residual = 0.00030731107, Final residual = 8.0189527e-06, No Iterations 1
DILUPBiCGStab:  Solving for k, Initial residual = 0.02896123, Final residual = 0.00052602818, No Iterations 1
ExecutionTime = 24.74 s  ClockTime = 24 s

forceCoeffs forces write:
    Coefficient	Total	Pressure	Viscous	Internal
    Cd:	0.32428112	0.24427885	0.080002272	0
    Cd(f):	0.18045659	0.14024182	0.040214767	0
    Cd(r):	0.14382453	0.10403703	0.039787505	0
    Cl:	-0.036632053	-0.036204792	-0.0004272617	0
    Cl(f):	-0.018492252	-0.018102396	-0.00038985657	0
    Cl(r):	-0.018139801	-0.018102396	-3.740513e-05	0
    CmPitch:	-0.00017622572	9.159976e-13	-0.00017622572	0
    CmRoll:	0.018316027	0.018102396	0.00021363085	0
    CmYaw:	0.16214056	0.12213942	0.040001136	0
    Cs:	-2.9749369e-20	3.6919372e-20	-6.6668741e-20	0
    Cs(f):	0.16214056	0.12213942	0.040001136	0
    Cs(r):	-0.16214056	-0.12213942	-0.040001136	0

    writing force and moment coefficient files.

Time = 21

DILUPBiCGStab:  Solving for Ux, Initial residual = 0.001301463, Final residual = 3.9520903e-06, No Iterations 1
DILUPBiCGStab:  Solving for Uy, Initial residual = 0.0040777841, Final residual = 6.5122983e-06, No Iterations 1
DILUPBiCGStab:  Solving for e, Initial residual = 0.025699061, Final residual = 0.0012535781, No Iterations 1
GAMG:  Solving for p, Initial residual = 0.23604691, Final residual = 0.0022896513, No Iterations 17
time step continuity errors : sum local = 7.2249987e-06, global = -6.8864814e-07, cumulative = -1.9841537e-05
DILUPBiCGStab:  Solving for omega, Initial residual = 0.00028821529, Final residual = 7.6121983e-06, No Iterations 1
DILUPBiCGStab:  Solving for k, Initial residual = 0.027322469, Final residual = 0.00050909176, No Iterations 1
ExecutionTime = 25.59 s  ClockTime = 25 s

forceCoeffs forces write:
    Coefficient	Total	Pressure	Viscous	Internal
    Cd:	0.36442168	0.28699032	0.077431357	0
    Cd(f):	0.24521724	0.20629192	0.038925318	0
    Cd(r):	0.11920444	0.0806984	0.038506039	0
    Cl:	-0.1260128	-0.12559352	-0.00041927935	0
    Cl(f):	-0.063177202	-0.062796761	-0.00038044038	0
    Cl(r):	-0.0628356	-0.062796761	-3.8838969e-05	0
    CmPitch:	-0.00017080071	5.3385912e-13	-0.00017080071	0
    CmRoll:	0.063006401	0.062796761	0.00020963968	0
    CmYaw:	0.18221084	0.14349516	0.038715678	0
    Cs:	-2.9738687e-20	3.7068925e-20	-6.6807612e-20	0
    Cs(f):	0.18221084	0.14349516	0.038715678	0
    Cs(r):	-0.18221084	-0.14349516	-0.038715678	0

    writing force and moment coefficient files.

Time = 22

DILUPBiCGStab:  Solving for Ux, Initial residual = 0.0013413078, Final residual = 3.7319099e-06, No Iterations 1
DILUPBiCGStab:  Solving for Uy, Initial residual = 0.003928779, Final residual = 6.2101462e-06, No Iterations 1
DILUPBiCGStab:  Solving for e, Initial residual = 0.025644438, Final residual = 0.0012548115, No Iterations 1
GAMG:  Solving for p, Initial residual = 0.20401085, Final residual = 0.0018606629, No Iterations 12
time step continuity errors : sum local = 6.1699499e-06, global = -5.8181408e-07, cumulative = -2.0423351e-05
DILUPBiCGStab:  Solving for omega, Initial residual = 0.00027198148, Final residual = 7.0930264e-06, No Iterations 1
DILUPBiCGStab:  Solving for k, Initial residual = 0.025822887, Final residual = 0.00049385289, No Iterations 1
ExecutionTime = 26.35 s  ClockTime = 26 s

forceCoeffs forces write:
    Coefficient	Total	Pressure	Viscous	Internal
    Cd:	0.44396561	0.36886694	0.075098665	0
    Cd(f):	0.30780967	0.2700494	0.037760268	0
    Cd(r):	0.13615594	0.098817546	0.037338397	0
    Cl:	-0.17165372	-0.17123185	-0.00042187064	0
    Cl(f):	-0.085992966	-0.085615927	-0.00037703913	0
    Cl(r):	-0.085660758	-0.085615927	-4.4831503e-05	0
    CmPitch:	-0.00016610381	4.3208834e-13	-0.00016610382	0
    CmRoll:	0.085826862	0.085615927	0.00021093532	0
    CmYaw:	0.2219828	0.18443347	0.037549333	0
    Cs:	-2.9734051e-20	3.7285246e-20	-6.7019297e-20	0
    Cs(f):	0.2219828	0.18443347	0.037549333	0
    Cs(r):	-0.2219828	-0.18443347	-0.037549333	0

    writing force and moment coefficient files.

Time = 23

DILUPBiCGStab:  Solving for Ux, Initial residual = 0.0012980527, Final residual = 3.2202426e-06, No Iterations 1
DILUPBiCGStab:  Solving for Uy, Initial residual = 0.0037222119, Final residual = 6.0524034e-06, No Iterations 1
DILUPBiCGStab:  Solving for e, Initial residual = 0.025443888, Final residual = 0.0012558836, No Iterations 1
GAMG:  Solving for p, Initial residual = 0.20714517, Final residual = 0.0019692697, No Iterations 12
time step continuity errors : sum local = 6.1675343e-06, global = -8.3006835e-07, cumulative = -2.125342e-05
DILUPBiCGStab:  Solving for omega, Initial residual = 0.0002562368, Final residual = 6.8932315e-06, No Iterations 1
DILUPBiCGStab:  Solving for k, Initial residual = 0.024424558, Final residual = 0.00048043891, No Iterations 1
ExecutionTime = 27.13 s  ClockTime = 27 s

forceCoeffs forces write:
    Coefficient	Total	Pressure	Viscous	Internal
    Cd:	0.50726358	0.43429323	0.072970346	0
    Cd(f):	0.33649873	0.29980156	0.036697169	0
    Cd(r):	0.17076485	0.13449167	0.036273177	0
    Cl:	-0.16573388	-0.16530989	-0.00042399247	0
    Cl(f):	-0.0830287	-0.082654944	-0.00037375518	0
    Cl(r):	-0.082705182	-0.082654944	-5.0237289e-05	0
    CmPitch:	-0.00016175895	5.7731897e-13	-0.00016175895	0
    CmRoll:	0.082866941	0.082654944	0.00021199623	0
    CmYaw:	0.25363179	0.21714661	0.036485173	0
    Cs:	-2.9793159e-20	3.7441982e-20	-6.7235141e-20	0
    Cs(f):	0.25363179	0.21714661	0.036485173	0
    Cs(r):	-0.25363179	-0.21714661	-0.036485173	0

    writing force and moment coefficient files.

Time = 24

DILUPBiCGStab:  Solving for Ux, Initial residual = 0.0013268264, Final residual = 3.0764818e-06, No Iterations 1
DILUPBiCGStab:  Solving for Uy, Initial residual = 0.0037545504, Final residual = 6.0110773e-06, No Iterations 1
DILUPBiCGStab:  Solving for e, Initial residual = 0.025390913, Final residual = 0.0012469786, No Iterations 1
GAMG:  Solving for p, Initial residual = 0.23067035, Final residual = 0.0021885661, No Iterations 11
time step continuity errors : sum local = 5.8854085e-06, global = -5.3714667e-07, cumulative = -2.1790566e-05
DILUPBiCGStab:  Solving for omega, Initial residual = 0.00024252081, Final residual = 6.3332586e-06, No Iterations 1
DILUPBiCGStab:  Solving for k, Initial residual = 0.023140308, Final residual = 0.00046784027, No Iterations 1
ExecutionTime = 27.89 s  ClockTime = 28 s

forceCoeffs forces write:
    Coefficient	Total	Pressure	Viscous	Internal
    Cd:	0.53556315	0.46454911	0.071014035	0
    Cd(f):	0.32823023	0.2925143	0.035715932	0
    Cd(r):	0.20733292	0.17203482	0.035298103	0
    Cl:	-0.12089731	-0.12047948	-0.0004178294	0
    Cl(f):	-0.060606064	-0.060239739	-0.0003663251	0
    Cl(r):	-0.060291243	-0.060239739	-5.1504309e-05	0
    CmPitch:	-0.00015741039	8.1403761e-13	-0.00015741039	0
    CmRoll:	0.060448654	0.060239739	0.0002089147	0
    CmYaw:	0.26778157	0.23227456	0.035507017	0
    Cs:	-2.9918904e-20	3.7498344e-20	-6.7417248e-20	0
    Cs(f):	0.26778157	0.23227456	0.035507017	0
    Cs(r):	-0.26778157	-0.23227456	-0.035507017	0

    writing force and moment coefficient files.

Time = 25

DILUPBiCGStab:  Solving for Ux, Initial residual = 0.0012743032, Final residual = 3.0094878e-06, No Iterations 1
DILUPBiCGStab:  Solving for Uy, Initial residual = 0.0037241266, Final residual = 5.9898927e-06, No Iterations 1
DILUPBiCGStab:  Solving for e, Initial residual = 0.025394661, Final residual = 0.0012524551, No Iterations 1
GAMG:  Solving for p, Initial residual = 0.27455199, Final residual = 0.0026044558, No Iterations 11
time step continuity errors : sum local = 5.9075484e-06, global = 5.9406672e-07, cumulative = -2.1196499e-05
DILUPBiCGStab:  Solving for omega, Initial residual = 0.0002294491, Final residual = 6.1601133e-06, No Iterations 1
DILUPBiCGStab:  Solving for k, Initial residual = 0.021963755, Final residual = 0.00045613763, No Iterations 1
ExecutionTime = 28.65 s  ClockTime = 28 s

forceCoeffs forces write:
    Coefficient	Total	Pressure	Viscous	Internal
    Cd:	0.50972743	0.44052824	0.069199194	0
    Cd(f):	0.29926753	0.26446528	0.034802254	0
    Cd(r):	0.2104599	0.17606296	0.034396939	0
    Cl:	-0.08880763	-0.088402315	-0.00040531496	0
    Cl(f):	-0.044556762	-0.044201157	-0.00035560493	0
    Cl(r):	-0.044250867	-0.044201157	-4.9710025e-05	0
    CmPitch:	-0.00015294745	9.1491754e-13	-0.00015294745	0
    CmRoll:	0.044403815	0.044201157	0.00020265748	0
    CmYaw:	0.25486372	0.22026412	0.034599597	0
    Cs:	-3.0070361e-20	3.7456067e-20	-6.7526428e-20	0
    Cs(f):	0.25486372	0.22026412	0.034599597	0
    Cs(r):	-0.25486372	-0.22026412	-0.034599597	0

    writing force and moment coefficient files.

Time = 26

DILUPBiCGStab:  Solving for Ux, Initial residual = 0.0012985757, Final residual = 2.8760513e-06, No Iterations 1
DILUPBiCGStab:  Solving for Uy, Initial residual = 0.0038200105, Final residual = 5.8826488e-06, No Iterations 1
DILUPBiCGStab:  Solving for e, Initial residual = 0.025548281, Final residual = 0.0012580177, No Iterations 1
GAMG:  Solving for p, Initial residual = 0.31327114, Final residual = 0.0029323892, No Iterations 12
time step continuity errors : sum local = 5.759999e-06, global = 7.2064084e-07, cumulative = -2.0475859e-05
DILUPBiCGStab:  Solving for omega, Initial residual = 0.00021714204, Final residual = 5.8598116e-06, No Iterations 1
DILUPBiCGStab:  Solving for k, Initial residual = 0.020871523, Final residual = 0.00044537647, No Iterations 1
ExecutionTime = 29.41 s  ClockTime = 29 s

forceCoeffs forces write:
    Coefficient	Total	Pressure	Viscous	Internal
    Cd:	0.4662764	0.39877107	0.067505336	0
    Cd(f):	0.26949581	0.235548	0.03394781	0
    Cd(r):	0.19678059	0.16322307	0.033557525	0
    Cl:	-0.072715221	-0.072324936	-0.00039028508	0
    Cl(f):	-0.036506051	-0.036162468	-0.00034358352	0
    Cl(r):	-0.036209169	-0.036162468	-4.6701563e-05	0
    CmPitch:	-0.00014844098	9.1323682e-13	-0.00014844098	0
    CmRoll:	0.03635761	0.036162468	0.00019514254	0
    CmYaw:	0.2331382	0.19938553	0.033752668	0
    Cs:	-3.0212261e-20	3.7377316e-20	-6.7589577e-20	0
    Cs(f):	0.2331382	0.19938553	0.033752668	0
    Cs(r):	-0.2331382	-0.19938553	-0.033752668	0

    writing force and moment coefficient files.

Time = 27

DILUPBiCGStab:  Solving for Ux, Initial residual = 0.0012077126, Final residual = 2.7579062e-06, No Iterations 1
DILUPBiCGStab:  Solving for Uy, Initial residual = 0.0036876909, Final residual = 5.7644783e-06, No Iterations 1
DILUPBiCGStab:  Solving for e, Initial residual = 0.025630254, Final residual = 0.0012607623, No Iterations 1
GAMG:  Solving for p, Initial residual = 0.30132887, Final residual = 0.002472748, No Iterations 10
time step continuity errors : sum local = 4.7084669e-06, global = 2.4136287e-07, cumulative = -2.0234496e-05
DILUPBiCGStab:  Solving for omega, Initial residual = 0.00020622264, Final residual = 5.5108925e-06, No Iterations 1
DILUPBiCGStab:  Solving for k, Initial residual = 0.019879205, Final residual = 0.00043536662, No Iterations 1
ExecutionTime = 30.13 s  ClockTime = 30 s

forceCoeffs forces write:
    Coefficient	Total	Pressure	Viscous	Internal
    Cd:	0.3920943	0.32618041	0.065913891	0
    Cd(f):	0.23586592	0.20272031	0.033145611	0
    Cd(r):	0.15622838	0.1234601	0.03276828	0
    Cl:	-0.079637532	-0.079260202	-0.00037733063	0
    Cl(f):	-0.039962777	-0.039630101	-0.00033267655	0
    Cl(r):	-0.039674755	-0.039630101	-4.4654085e-05	0
    CmPitch:	-0.00014401123	7.4553318e-13	-0.00014401123	0
    CmRoll:	0.039818766	0.039630101	0.00018866532	0
    CmYaw:	0.19604715	0.1630902	0.032956945	0
    Cs:	-3.0353248e-20	3.7256006e-20	-6.7609254e-20	0
    Cs(f):	0.19604715	0.1630902	0.032956945	0
    Cs(r):	-0.19604715	-0.1630902	-0.032956945	0

    writing force and moment coefficient files.

Time = 28

DILUPBiCGStab:  Solving for Ux, Initial residual = 0.0011934716, Final residual = 2.793366e-06, No Iterations 1
DILUPBiCGStab:  Solving for Uy, Initial residual = 0.0035881658, Final residual = 5.7017676e-06, No Iterations 1
DILUPBiCGStab:  Solving for e, Initial residual = 0.025553911, Final residual = 0.001271732, No Iterations 1
GAMG:  Solving for p, Initial residual = 0.27837144, Final residual = 0.0025202126, No Iterations 6
time step continuity errors : sum local = 4.88176e-06, global = -3.2152103e-07, cumulative = -2.0556017e-05
DILUPBiCGStab:  Solving for omega, Initial residual = 0.0001959492, Final residual = 5.2247589e-06, No Iterations 1
DILUPBiCGStab:  Solving for k, Initial residual = 0.018943739, Final residual = 0.00042522843, No Iterations 1
ExecutionTime = 30.79 s  ClockTime = 31 s

forceCoeffs forces write:
    Coefficient	Total	Pressure	Viscous	Internal
    Cd:	0.37112539	0.30670381	0.064421579	0
    Cd(f):	0.23105417	0.1986596	0.03239457	0
    Cd(r):	0.14007122	0.10804421	0.032027009	0
    Cl:	-0.090982956	-0.090615395	-0.00036756126	0
    Cl(f):	-0.045631184	-0.045307697	-0.00032348684	0
    Cl(r):	-0.045351772	-0.045307697	-4.4074417e-05	0
    CmPitch:	-0.00013970621	6.9689379e-13	-0.00013970621	0
    CmRoll:	0.045491478	0.045307697	0.00018378063	0
    CmYaw:	0.1855627	0.15335191	0.032210789	0
    Cs:	-3.0432468e-20	3.722715e-20	-6.7659618e-20	0
    Cs(f):	0.1855627	0.15335191	0.032210789	0
    Cs(r):	-0.1855627	-0.15335191	-0.032210789	0

    writing force and moment coefficient files.

Time = 29

DILUPBiCGStab:  Solving for Ux, Initial residual = 0.0011300163, Final residual = 2.7251275e-06, No Iterations 1
DILUPBiCGStab:  Solving for Uy, Initial residual = 0.0034573159, Final residual = 5.5288606e-06, No Iterations 1
DILUPBiCGStab:  Solving for e, Initial residual = 0.025391909, Final residual = 0.001284893, No Iterations 1
GAMG:  Solving for p, Initial residual = 0.26108312, Final residual = 0.0023805581, No Iterations 8
time step continuity errors : sum local = 4.9163406e-06, global = 3.1162407e-07, cumulative = -2.0244393e-05
DILUPBiCGStab:  Solving for omega, Initial residual = 0.0001864093, Final residual = 4.8866036e-06, No Iterations 1
DILUPBiCGStab:  Solving for k, Initial residual = 0.018069699, Final residual = 0.00041523074, No Iterations 1
ExecutionTime = 31.47 s  ClockTime = 31 s

forceCoeffs forces write:
    Coefficient	Total	Pressure	Viscous	Internal
    Cd:	0.36215562	0.29913417	0.063021445	0
    Cd(f):	0.23580105	0.20410945	0.031691605	0
    Cd(r):	0.12635456	0.095024724	0.03132984	0
    Cl:	-0.10944649	-0.10908473	-0.00036176457	0
    Cl(f):	-0.054858786	-0.054542363	-0.00031642344	0
    Cl(r):	-0.054587704	-0.054542363	-4.534113e-05	0
    CmPitch:	-0.00013554116	5.9256823e-13	-0.00013554116	0
    CmRoll:	0.054723245	0.054542363	0.00018088229	0
    CmYaw:	0.18107781	0.14956709	0.031510722	0
    Cs:	-3.0475008e-20	3.7236857e-20	-6.7711865e-20	0
    Cs(f):	0.18107781	0.14956709	0.031510722	0
    Cs(r):	-0.18107781	-0.14956709	-0.031510722	0

    writing force and moment coefficient files.

Time = 30

DILUPBiCGStab:  Solving for Ux, Initial residual = 0.0011081982, Final residual = 2.7623895e-06, No Iterations 1
DILUPBiCGStab:  Solving for Uy, Initial residual = 0.0033424745, Final residual = 5.4795496e-06, No Iterations 1
DILUPBiCGStab:  Solving for e, Initial residual = 0.025289056, Final residual = 0.0012838158, No Iterations 1
GAMG:  Solving for p, Initial residual = 0.23037643, Final residual = 0.0017889445, No Iterations 8
time step continuity errors : sum local = 4.007716e-06, global = -3.7534939e-07, cumulative = -2.0619742e-05
DILUPBiCGStab:  Solving for omega, Initial residual = 0.00017742706, Final residual = 4.5753448e-06, No Iterations 1
DILUPBiCGStab:  Solving for k, Initial residual = 0.017256973, Final residual = 0.00040581829, No Iterations 1
ExecutionTime = 32.15 s  ClockTime = 32 s

forceCoeffs forces write:
    Coefficient	Total	Pressure	Viscous	Internal
    Cd:	0.37688333	0.31517508	0.061708257	0
    Cd(f):	0.24945339	0.21841998	0.031033413	0
    Cd(r):	0.12742995	0.096755102	0.030674843	0
    Cl:	-0.12202344	-0.12166487	-0.00035856976	0
    Cl(f):	-0.061143205	-0.060832436	-0.00031076864	0
    Cl(r):	-0.060880238	-0.060832436	-4.7801123e-05	0
    CmPitch:	-0.00013148376	5.6735913e-13	-0.00013148376	0
    CmRoll:	0.061011721	0.060832436	0.00017928488	0
    CmYaw:	0.18844167	0.15758754	0.030854128	0
    Cs:	-3.048681e-20	3.7284067e-20	-6.7770877e-20	0
    Cs(f):	0.18844167	0.15758754	0.030854128	0
    Cs(r):	-0.18844167	-0.15758754	-0.030854128	0

    writing force and moment coefficient files.

Time = 31

DILUPBiCGStab:  Solving for Ux, Initial residual = 0.0011003535, Final residual = 2.7387886e-06, No Iterations 1
DILUPBiCGStab:  Solving for Uy, Initial residual = 0.0031955085, Final residual = 5.5030079e-06, No Iterations 1
DILUPBiCGStab:  Solving for e, Initial residual = 0.025114806, Final residual = 0.0012785333, No Iterations 1
GAMG:  Solving for p, Initial residual = 0.20171537, Final residual = 0.0015903823, No Iterations 7
time step continuity errors : sum local = 4.0944121e-06, global = -3.5679603e-07, cumulative = -2.0976538e-05
DILUPBiCGStab:  Solving for omega, Initial residual = 0.00016870426, Final residual = 4.4829926e-06, No Iterations 1
DILUPBiCGStab:  Solving for k, Initial residual = 0.016484432, Final residual = 0.00039685665, No Iterations 1
ExecutionTime = 32.82 s  ClockTime = 33 s

forceCoeffs forces write:
    Coefficient	Total	Pressure	Viscous	Internal
    Cd:	0.39989748	0.33942214	0.06047534	0
    Cd(f):	0.26059844	0.23018301	0.030415428	0
    Cd(r):	0.13929904	0.10923913	0.030059912	0
    Cl:	-0.1212994	-0.12094389	-0.00035551618	0
    Cl(f):	-0.060777211	-0.060471944	-0.0003052676	0
    Cl(r):	-0.060522192	-0.060471944	-5.0248578e-05	0
    CmPitch:	-0.00012750951	6.1831119e-13	-0.00012750951	0
    CmRoll:	0.060649702	0.060471944	0.00017775809	0
    CmYaw:	0.19994874	0.16971107	0.03023767	0
    Cs:	-3.0511273e-20	3.7331969e-20	-6.7843242e-20	0
    Cs(f):	0.19994874	0.16971107	0.03023767	0
    Cs(r):	-0.19994874	-0.16971107	-0.03023767	0

    writing force and moment coefficient files.

Time = 32

DILUPBiCGStab:  Solving for Ux, Initial residual = 0.0010621744, Final residual = 2.6868784e-06, No Iterations 1
DILUPBiCGStab:  Solving for Uy, Initial residual = 0.003028002, Final residual = 5.5051897e-06, No Iterations 1
DILUPBiCGStab:  Solving for e, Initial residual = 0.024954549, Final residual = 0.0012714146, No Iterations 1
GAMG:  Solving for p, Initial residual = 0.20689681, Final residual = 0.0020306655, No Iterations 5
time step continuity errors : sum local = 5.7458205e-06, global = 1.2186521e-06, cumulative = -1.9757886e-05
DILUPBiCGStab:  Solving for omega, Initial residual = 0.00016086419, Final residual = 4.2717884e-06, No Iterations 1
DILUPBiCGStab:  Solving for k, Initial residual = 0.015745646, Final residual = 0.00038848604, No Iterations 1
ExecutionTime = 33.46 s  ClockTime = 33 s

forceCoeffs forces write:
    Coefficient	Total	Pressure	Viscous	Internal
    Cd:	0.40114538	0.34183375	0.059311622	0
    Cd(f):	0.25856459	0.22873305	0.029831537	0
    Cd(r):	0.14258079	0.11310071	0.029480084	0
    Cl:	-0.11598379	-0.11563234	-0.00035145288	0
    Cl(f):	-0.05811545	-0.057816171	-0.00029927903	0
    Cl(r):	-0.057868345	-0.057816171	-5.2173849e-05	0
    CmPitch:	-0.00012355259	6.3554322e-13	-0.00012355259	0
    CmRoll:	0.057991897	0.057816171	0.00017572644	0
    CmYaw:	0.20057269	0.17091688	0.029655811	0
    Cs:	-3.05668e-20	3.7340063e-20	-6.7906862e-20	0
    Cs(f):	0.20057269	0.17091688	0.029655811	0
    Cs(r):	-0.20057269	-0.17091688	-0.029655811	0

    writing force and moment coefficient files.

Time = 33

DILUPBiCGStab:  Solving for Ux, Initial residual = 0.0010218029, Final residual = 2.6395294e-06, No Iterations 1
DILUPBiCGStab:  Solving for Uy, Initial residual = 0.0028023391, Final residual = 5.4854082e-06, No Iterations 1
DILUPBiCGStab:  Solving for e, Initial residual = 0.025051074, Final residual = 0.0012586779, No Iterations 1
GAMG:  Solving for p, Initial residual = 0.18600928, Final residual = 0.0016177065, No Iterations 6
time step continuity errors : sum local = 4.6161834e-06, global = 7.3173415e-07, cumulative = -1.9026152e-05
DILUPBiCGStab:  Solving for omega, Initial residual = 0.00015361769, Final residual = 4.0681641e-06, No Iterations 1
DILUPBiCGStab:  Solving for k, Initial residual = 0.015043801, Final residual = 0.00038133095, No Iterations 1
ExecutionTime = 34.11 s  ClockTime = 34 s

forceCoeffs forces write:
    Coefficient	Total	Pressure	Viscous	Internal
    Cd:	0.39447559	0.33626644	0.058209152	0
    Cd(f):	0.25009152	0.22081416	0.029277362	0
    Cd(r):	0.14438407	0.11545228	0.028931789	0
    Cl:	-0.10570745	-0.10536188	-0.0003455731	0
    Cl(f):	-0.052973369	-0.05268094	-0.00029242978	0
    Cl(r):	-0.052734083	-0.05268094	-5.3143325e-05	0
    CmPitch:	-0.00011964323	6.4552733e-13	-0.00011964323	0
    CmRoll:	0.052853726	0.05268094	0.00017278655	0
    CmYaw:	0.19723779	0.16813322	0.029104576	0
    Cs:	-3.0626064e-20	3.7327912e-20	-6.7953977e-20	0
    Cs(f):	0.19723779	0.16813322	0.029104576	0
    Cs(r):	-0.19723779	-0.16813322	-0.029104576	0

    writing force and moment coefficient files.

Time = 34

DILUPBiCGStab:  Solving for Ux, Initial residual = 0.00093589715, Final residual = 2.5796841e-06, No Iterations 1
DILUPBiCGStab:  Solving for Uy, Initial residual = 0.0026747544, Final residual = 5.4789705e-06, No Iterations 1
DILUPBiCGStab:  Solving for e, Initial residual = 0.024878292, Final residual = 0.0012499631, No Iterations 1
GAMG:  Solving for p, Initial residual = 0.1675973, Final residual = 0.0014006759, No Iterations 6
time step continuity errors : sum local = 4.1866925e-06, global = -1.9129228e-07, cumulative = -1.9217444e-05
DILUPBiCGStab:  Solving for omega, Initial residual = 0.00014706524, Final residual = 3.8940973e-06, No Iterations 1
DILUPBiCGStab:  Solving for k, Initial residual = 0.014399362, Final residual = 0.00037375329, No Iterations 1
ExecutionTime = 34.76 s  ClockTime = 34 s

forceCoeffs forces write:
    Coefficient	Total	Pressure	Viscous	Internal
    Cd:	0.39879885	0.34163454	0.057164303	0
    Cd(f):	0.25085149	0.22209969	0.028751799	0
    Cd(r):	0.14794736	0.11953485	0.028412505	0
    Cl:	-0.10290413	-0.10256483	-0.00033929392	0
    Cl(f):	-0.051567817	-0.051282417	-0.00028539937	0
    Cl(r):	-0.051336312	-0.051282417	-5.389455e-05	0
    CmPitch:	-0.00011575241	6.5966503e-13	-0.00011575241	0
    CmRoll:	0.051452064	0.051282417	0.00016964696	0
    CmYaw:	0.19939942	0.17081727	0.028582152	0
    Cs:	-3.0671155e-20	3.7343128e-20	-6.8014283e-20	0
    Cs(f):	0.19939942	0.17081727	0.028582152	0
    Cs(r):	-0.19939942	-0.17081727	-0.028582152	0

    writing force and moment coefficient files.

Time = 35

DILUPBiCGStab:  Solving for Ux, Initial residual = 0.00093421316, Final residual = 2.5956618e-06, No Iterations 1
DILUPBiCGStab:  Solving for Uy, Initial residual = 0.002681904, Final residual = 5.3697315e-06, No Iterations 1
DILUPBiCGStab:  Solving for e, Initial residual = 0.024628988, Final residual = 0.0012341728, No Iterations 1
GAMG:  Solving for p, Initial residual = 0.18138089, Final residual = 0.0012362302, No Iterations 7
time step continuity errors : sum local = 3.7126096e-06, global = -2.1425482e-07, cumulative = -1.9431699e-05
DILUPBiCGStab:  Solving for omega, Initial residual = 0.00014142502, Final residual = 3.5410835e-06, No Iterations 1
DILUPBiCGStab:  Solving for k, Initial residual = 0.013772631, Final residual = 0.00036566998, No Iterations 1
ExecutionTime = 35.44 s  ClockTime = 35 s

forceCoeffs forces write:
    Coefficient	Total	Pressure	Viscous	Internal
    Cd:	0.39659662	0.3404252	0.056171416	0
    Cd(f):	0.25036596	0.2221135	0.028252463	0
    Cd(r):	0.14623066	0.1183117	0.027918953	0
    Cl:	-0.1041353	-0.10380179	-0.00033351002	0
    Cl(f):	-0.052179496	-0.051900897	-0.00027859898	0
    Cl(r):	-0.051955808	-0.051900897	-5.4911038e-05	0
    CmPitch:	-0.00011184397	6.4950527e-13	-0.00011184397	0
    CmRoll:	0.052067652	0.051900897	0.00016675501	0
    CmYaw:	0.19829831	0.1702126	0.028085708	0
    Cs:	-3.0716412e-20	3.7350656e-20	-6.8067068e-20	0
    Cs(f):	0.19829831	0.1702126	0.028085708	0
    Cs(r):	-0.19829831	-0.1702126	-0.028085708	0

    writing force and moment coefficient files.

Time = 36

DILUPBiCGStab:  Solving for Ux, Initial residual = 0.00096339159, Final residual = 2.6531605e-06, No Iterations 1
DILUPBiCGStab:  Solving for Uy, Initial residual = 0.0026738338, Final residual = 5.6536366e-06, No Iterations 1
DILUPBiCGStab:  Solving for e, Initial residual = 0.02455649, Final residual = 0.0012204467, No Iterations 1
GAMG:  Solving for p, Initial residual = 0.17163834, Final residual = 0.0014170599, No Iterations 6
time step continuity errors : sum local = 4.0825658e-06, global = 8.4472067e-07, cumulative = -1.8586978e-05
DILUPBiCGStab:  Solving for omega, Initial residual = 0.0001349614, Final residual = 3.570482e-06, No Iterations 1
DILUPBiCGStab:  Solving for k, Initial residual = 0.013150903, Final residual = 0.00035919468, No Iterations 1
ExecutionTime = 36.09 s  ClockTime = 36 s

forceCoeffs forces write:
    Coefficient	Total	Pressure	Viscous	Internal
    Cd:	0.37513455	0.31991162	0.055222931	0
    Cd(f):	0.23966771	0.21189224	0.027775475	0
    Cd(r):	0.13546684	0.10801939	0.027447456	0
    Cl:	-0.10420087	-0.10387285	-0.00032801835	0
    Cl(f):	-0.052208382	-0.051936425	-0.00027195727	0
    Cl(r):	-0.051992486	-0.051936425	-5.6061078e-05	0
    CmPitch:	-0.00010794809	5.9511382e-13	-0.00010794809	0
    CmRoll:	0.052100434	0.051936425	0.00016400917	0
    CmYaw:	0.18756728	0.15995581	0.027611466	0
    Cs:	-3.077435e-20	3.7316585e-20	-6.8090934e-20	0
    Cs(f):	0.18756728	0.15995581	0.027611466	0
    Cs(r):	-0.18756728	-0.15995581	-0.027611466	0

    writing force and moment coefficient files.

Time = 37

DILUPBiCGStab:  Solving for Ux, Initial residual = 0.00086005299, Final residual = 2.5998011e-06, No Iterations 1
DILUPBiCGStab:  Solving for Uy, Initial residual = 0.0025452708, Final residual = 5.5226524e-06, No Iterations 1
DILUPBiCGStab:  Solving for e, Initial residual = 0.024448864, Final residual = 0.0012404707, No Iterations 1
GAMG:  Solving for p, Initial residual = 0.15085395, Final residual = 0.0008862712, No Iterations 7
time step continuity errors : sum local = 2.643253e-06, global = 7.4702823e-08, cumulative = -1.8512276e-05
DILUPBiCGStab:  Solving for omega, Initial residual = 0.00012979869, Final residual = 3.4297619e-06, No Iterations 1
DILUPBiCGStab:  Solving for k, Initial residual = 0.012609878, Final residual = 0.00035337463, No Iterations 1
ExecutionTime = 36.78 s  ClockTime = 36 s

forceCoeffs forces write:
    Coefficient	Total	Pressure	Viscous	Internal
    Cd:	0.36449394	0.31017717	0.054316774	0
    Cd(f):	0.23921082	0.21189024	0.027320584	0
    Cd(r):	0.12528312	0.098286933	0.02699619	0
    Cl:	-0.1139277	-0.1136033	-0.0003243944	0
    Cl(f):	-0.057067935	-0.056801651	-0.00026628408	0
    Cl(r):	-0.056859762	-0.056801651	-5.8110322e-05	0
    CmPitch:	-0.00010408688	5.4044446e-13	-0.00010408688	0
    CmRoll:	0.056963849	0.056801651	0.0001621972	0
    CmYaw:	0.18224697	0.15508858	0.027158387	0
    Cs:	-3.0816307e-20	3.7316379e-20	-6.8132686e-20	0
    Cs(f):	0.18224697	0.15508858	0.027158387	0
    Cs(r):	-0.18224697	-0.15508858	-0.027158387	0

    writing force and moment coefficient files.

Time = 38

DILUPBiCGStab:  Solving for Ux, Initial residual = 0.00089528978, Final residual = 2.6180166e-06, No Iterations 1
DILUPBiCGStab:  Solving for Uy, Initial residual = 0.0025329848, Final residual = 5.3204894e-06, No Iterations 1
DILUPBiCGStab:  Solving for e, Initial residual = 0.024275627, Final residual = 0.0012267295, No Iterations 1
GAMG:  Solving for p, Initial residual = 0.14617461, Final residual = 0.00065259879, No Iterations 8
time step continuity errors : sum local = 1.8914875e-06, global = -2.5271758e-07, cumulative = -1.8764993e-05
DILUPBiCGStab:  Solving for omega, Initial residual = 0.00012493779, Final residual = 3.270058e-06, No Iterations 1
DILUPBiCGStab:  Solving for k, Initial residual = 0.012083613, Final residual = 0.00034825277, No Iterations 1
ExecutionTime = 37.5 s  ClockTime = 37 s

forceCoeffs forces write:
    Coefficient	Total	Pressure	Viscous	Internal
    Cd:	0.34894256	0.29549309	0.053449467	0
    Cd(f):	0.23722249	0.21033627	0.026886219	0
    Cd(r):	0.11172007	0.085156823	0.026563248	0
    Cl:	-0.12550242	-0.12517944	-0.00032297142	0
    Cl(f):	-0.062851454	-0.062589722	-0.00026173148	0
    Cl(r):	-0.062650962	-0.062589722	-6.1239938e-05	0
    CmPitch:	-0.00010024577	4.5239434e-13	-0.00010024577	0
    CmRoll:	0.062751208	0.062589722	0.00016148571	0
    CmYaw:	0.17447128	0.14774655	0.026724733	0
    Cs:	-3.0859898e-20	3.7316774e-20	-6.8176672e-20	0
    Cs(f):	0.17447128	0.14774655	0.026724733	0
    Cs(r):	-0.17447128	-0.14774655	-0.026724733	0

    writing force and moment coefficient files.

Time = 39

DILUPBiCGStab:  Solving for Ux, Initial residual = 0.00088533386, Final residual = 2.6117655e-06, No Iterations 1
DILUPBiCGStab:  Solving for Uy, Initial residual = 0.0024817363, Final residual = 5.226037e-06, No Iterations 1
DILUPBiCGStab:  Solving for e, Initial residual = 0.024027595, Final residual = 0.0012484525, No Iterations 1
GAMG:  Solving for p, Initial residual = 0.16197942, Final residual = 0.00081162707, No Iterations 6
time step continuity errors : sum local = 2.2644839e-06, global = -2.5635123e-07, cumulative = -1.9021344e-05
DILUPBiCGStab:  Solving for omega, Initial residual = 0.00012028174, Final residual = 3.0848369e-06, No Iterations 1
DILUPBiCGStab:  Solving for k, Initial residual = 0.011563025, Final residual = 0.00034480215, No Iterations 1
ExecutionTime = 38.15 s  ClockTime = 38 s

forceCoeffs forces write:
    Coefficient	Total	Pressure	Viscous	Internal
    Cd:	0.34288388	0.29026445	0.052619431	0
    Cd(f):	0.23249793	0.20602767	0.026470258	0
    Cd(r):	0.11038596	0.084236783	0.026149173	0
    Cl:	-0.12211197	-0.12179089	-0.00032108432	0
    Cl(f):	-0.061152432	-0.060895443	-0.00025698864	0
    Cl(r):	-0.060959539	-0.060895443	-6.4095678e-05	0
    CmPitch:	-9.6446482e-05	4.2034398e-13	-9.6446483e-05	0
    CmRoll:	0.061055985	0.060895443	0.00016054216	0
    CmYaw:	0.17144194	0.14513223	0.026309716	0
    Cs:	-3.090489e-20	3.7309068e-20	-6.8213958e-20	0
    Cs(f):	0.17144194	0.14513223	0.026309716	0
    Cs(r):	-0.17144194	-0.14513223	-0.026309716	0

    writing force and moment coefficient files.

Time = 40

DILUPBiCGStab:  Solving for Ux, Initial residual = 0.00085035447, Final residual = 2.6177458e-06, No Iterations 1
DILUPBiCGStab:  Solving for Uy, Initial residual = 0.0024675637, Final residual = 5.4173638e-06, No Iterations 1
DILUPBiCGStab:  Solving for e, Initial residual = 0.023943694, Final residual = 0.0012576748, No Iterations 1
GAMG:  Solving for p, Initial residual = 0.15609857, Final residual = 0.0014556729, No Iterations 5
time step continuity errors : sum local = 4.1023027e-06, global = 5.9693248e-08, cumulative = -1.8961651e-05
DILUPBiCGStab:  Solving for omega, Initial residual = 0.00011577485, Final residual = 3.0267795e-06, No Iterations 1
DILUPBiCGStab:  Solving for k, Initial residual = 0.011087066, Final residual = 0.00034096778, No Iterations 1
ExecutionTime = 38.79 s  ClockTime = 39 s

forceCoeffs forces write:
    Coefficient	Total	Pressure	Viscous	Internal
    Cd:	0.3391016	0.28727708	0.051824523	0
    Cd(f):	0.22976464	0.20369303	0.026071609	0
    Cd(r):	0.10933697	0.083584051	0.025752914	0
    Cl:	-0.12042767	-0.12010898	-0.00031869488	0
    Cl(f):	-0.06030651	-0.060054488	-0.00025202177	0
    Cl(r):	-0.060121161	-0.060054488	-6.6673103e-05	0
    CmPitch:	-9.2674336e-05	3.9484089e-13	-9.2674336e-05	0
    CmRoll:	0.060213835	0.060054488	0.00015934744	0
    CmYaw:	0.1695508	0.14363854	0.025912261	0
    Cs:	-3.094452e-20	3.7306445e-20	-6.8250965e-20	0
    Cs(f):	0.1695508	0.14363854	0.025912261	0
    Cs(r):	-0.1695508	-0.14363854	-0.025912261	0

    writing force and moment coefficient files.

Time = 41

DILUPBiCGStab:  Solving for Ux, Initial residual = 0.0008480274, Final residual = 2.5960903e-06, No Iterations 1
DILUPBiCGStab:  Solving for Uy, Initial residual = 0.0024154364, Final residual = 5.4105985e-06, No Iterations 1
DILUPBiCGStab:  Solving for e, Initial residual = 0.02379975, Final residual = 0.0012466822, No Iterations 1
GAMG:  Solving for p, Initial residual = 0.14504602, Final residual = 0.001347726, No Iterations 5
time step continuity errors : sum local = 3.7455e-06, global = 7.4879289e-08, cumulative = -1.8886772e-05
DILUPBiCGStab:  Solving for omega, Initial residual = 0.00011180164, Final residual = 2.8116801e-06, No Iterations 1
DILUPBiCGStab:  Solving for k, Initial residual = 0.010625137, Final residual = 0.00033775888, No Iterations 1
ExecutionTime = 39.42 s  ClockTime = 39 s

forceCoeffs forces write:
    Coefficient	Total	Pressure	Viscous	Internal
    Cd:	0.33273371	0.28167167	0.051062044	0
    Cd(f):	0.2257696	0.20008058	0.025689023	0
    Cd(r):	0.10696411	0.081591087	0.025373021	0
    Cl:	-0.1188055	-0.11848949	-0.0003160026	0
    Cl(f):	-0.059491671	-0.059244747	-0.00024692483	0
    Cl(r):	-0.059313824	-0.059244747	-6.9077769e-05	0
    CmPitch:	-8.8923529e-05	3.5854468e-13	-8.8923529e-05	0
    CmRoll:	0.059402748	0.059244747	0.0001580013	0
    CmYaw:	0.16636686	0.14083583	0.025531022	0
    Cs:	-3.0981547e-20	3.7299729e-20	-6.8281277e-20	0
    Cs(f):	0.16636686	0.14083583	0.025531022	0
    Cs(r):	-0.16636686	-0.14083583	-0.025531022	0

    writing force and moment coefficient files.

Time = 42

DILUPBiCGStab:  Solving for Ux, Initial residual = 0.00083258506, Final residual = 2.561978e-06, No Iterations 1
DILUPBiCGStab:  Solving for Uy, Initial residual = 0.0023434151, Final residual = 5.299697e-06, No Iterations 1
DILUPBiCGStab:  Solving for e, Initial residual = 0.023570283, Final residual = 0.0012725644, No Iterations 1
GAMG:  Solving for p, Initial residual = 0.13264904, Final residual = 0.00096156969, No Iterations 7
time step continuity errors : sum local = 2.6942752e-06, global = -1.5234636e-07, cumulative = -1.9039118e-05
DILUPBiCGStab:  Solving for omega, Initial residual = 0.00010750781, Final residual = 2.8294781e-06, No Iterations 1
DILUPBiCGStab:  Solving for k, Initial residual = 0.010190303, Final residual = 0.00033463707, No Iterations 1
ExecutionTime = 40.1 s  ClockTime = 40 s

forceCoeffs forces write:
    Coefficient	Total	Pressure	Viscous	Internal
    Cd:	0.3366177	0.28628627	0.050331437	0
    Cd(f):	0.22863354	0.20331098	0.025322554	0
    Cd(r):	0.10798417	0.082975284	0.025008883	0
    Cl:	-0.12064937	-0.1203357	-0.00031367096	0
    Cl(f):	-0.060409837	-0.060167849	-0.00024198742	0
    Cl(r):	-0.060239533	-0.060167849	-7.168354e-05	0
    CmPitch:	-8.5151942e-05	3.4722189e-13	-8.5151942e-05	0
    CmRoll:	0.060324685	0.060167849	0.00015683548	0
    CmYaw:	0.16830885	0.14314313	0.025165719	0
    Cs:	-3.1001877e-20	3.7317452e-20	-6.8319329e-20	0
    Cs(f):	0.16830885	0.14314313	0.025165719	0
    Cs(r):	-0.16830885	-0.14314313	-0.025165719	0

    writing force and moment coefficient files.

Time = 43

DILUPBiCGStab:  Solving for Ux, Initial residual = 0.00082377703, Final residual = 2.5336665e-06, No Iterations 1
DILUPBiCGStab:  Solving for Uy, Initial residual = 0.0023235678, Final residual = 5.0453931e-06, No Iterations 1
DILUPBiCGStab:  Solving for e, Initial residual = 0.023383541, Final residual = 0.0012738503, No Iterations 1
GAMG:  Solving for p, Initial residual = 0.13165134, Final residual = 0.0010729291, No Iterations 5
time step continuity errors : sum local = 3.0219225e-06, global = 6.2257798e-08, cumulative = -1.897686e-05
DILUPBiCGStab:  Solving for omega, Initial residual = 0.00010367981, Final residual = 2.7466008e-06, No Iterations 1
DILUPBiCGStab:  Solving for k, Initial residual = 0.0097780702, Final residual = 0.000332502, No Iterations 1
ExecutionTime = 40.73 s  ClockTime = 40 s

forceCoeffs forces write:
    Coefficient	Total	Pressure	Viscous	Internal
    Cd:	0.33627297	0.28664301	0.049629963	0
    Cd(f):	0.22935409	0.20438326	0.024970834	0
    Cd(r):	0.10691888	0.082259751	0.024659129	0
    Cl:	-0.12243521	-0.12212351	-0.00031170508	0
    Cl(f):	-0.061298951	-0.061061754	-0.00023719642	0
    Cl(r):	-0.061136263	-0.061061754	-7.4508661e-05	0
    CmPitch:	-8.1343881e-05	3.1872895e-13	-8.1343881e-05	0
    CmRoll:	0.061217607	0.061061754	0.00015585254	0
    CmYaw:	0.16813649	0.14332151	0.024814981	0
    Cs:	-3.1030732e-20	3.7323112e-20	-6.8353844e-20	0
    Cs(f):	0.16813649	0.14332151	0.024814981	0
    Cs(r):	-0.16813649	-0.14332151	-0.024814981	0

    writing force and moment coefficient files.

Time = 44

DILUPBiCGStab:  Solving for Ux, Initial residual = 0.00081008128, Final residual = 2.5067049e-06, No Iterations 1
DILUPBiCGStab:  Solving for Uy, Initial residual = 0.0022231413, Final residual = 4.9983529e-06, No Iterations 1
DILUPBiCGStab:  Solving for e, Initial residual = 0.023218047, Final residual = 0.0012746054, No Iterations 1
GAMG:  Solving for p, Initial residual = 0.11215746, Final residual = 0.00062468576, No Iterations 7
time step continuity errors : sum local = 1.7342569e-06, global = -8.7417012e-08, cumulative = -1.9064277e-05
DILUPBiCGStab:  Solving for omega, Initial residual = 0.00010005009, Final residual = 2.6549583e-06, No Iterations 1
DILUPBiCGStab:  Solving for k, Initial residual = 0.0093783395, Final residual = 0.00032987637, No Iterations 1
ExecutionTime = 41.42 s  ClockTime = 41 s

forceCoeffs forces write:
    Coefficient	Total	Pressure	Viscous	Internal
    Cd:	0.33133746	0.28238275	0.04895471	0
    Cd(f):	0.22811295	0.20348055	0.024632401	0
    Cd(r):	0.10322451	0.078902201	0.02432231	0
    Cl:	-0.12488844	-0.12457835	-0.00031009075	0
    Cl(f):	-0.062521733	-0.062289176	-0.00023255695	0
    Cl(r):	-0.06236671	-0.062289176	-7.7533803e-05	0
    CmPitch:	-7.7511573e-05	2.8507478e-13	-7.7511574e-05	0
    CmRoll:	0.062444222	0.062289176	0.00015504538	0
    CmYaw:	0.16566873	0.14119138	0.024477355	0
    Cs:	-3.1054781e-20	3.7322376e-20	-6.8377157e-20	0
    Cs(f):	0.16566873	0.14119138	0.024477355	0
    Cs(r):	-0.16566873	-0.14119138	-0.024477355	0

    writing force and moment coefficient files.

Time = 45

DILUPBiCGStab:  Solving for Ux, Initial residual = 0.00077534131, Final residual = 2.5086896e-06, No Iterations 1
DILUPBiCGStab:  Solving for Uy, Initial residual = 0.0021751065, Final residual = 5.0510158e-06, No Iterations 1
DILUPBiCGStab:  Solving for e, Initial residual = 0.022964511, Final residual = 0.0012884364, No Iterations 1
GAMG:  Solving for p, Initial residual = 0.10108618, Final residual = 0.00098164511, No Iterations 5
time step continuity errors : sum local = 2.7863494e-06, global = -1.3764894e-07, cumulative = -1.9201926e-05
DILUPBiCGStab:  Solving for omega, Initial residual = 9.6857015e-05, Final residual = 2.5659606e-06, No Iterations 1
DILUPBiCGStab:  Solving for k, Initial residual = 0.0090135557, Final residual = 0.00032732415, No Iterations 1
ExecutionTime = 42.05 s  ClockTime = 42 s

forceCoeffs forces write:
    Coefficient	Total	Pressure	Viscous	Internal
    Cd:	0.33155039	0.28324564	0.048304749	0
    Cd(f):	0.22933532	0.20502853	0.024306794	0
    Cd(r):	0.10221507	0.078217115	0.023997954	0
    Cl:	-0.12712025	-0.12681141	-0.00030884001	0
    Cl(f):	-0.063633804	-0.063405707	-0.00022809758	0
    Cl(r):	-0.063486449	-0.063405707	-8.0742431e-05	0
    CmPitch:	-7.3677576e-05	2.6809176e-13	-7.3677576e-05	0
    CmRoll:	0.063560127	0.063405707	0.00015442001	0
    CmYaw:	0.1657752	0.14162282	0.024152374	0
    Cs:	-3.1077805e-20	3.7330801e-20	-6.8408606e-20	0
    Cs(f):	0.1657752	0.14162282	0.024152374	0
    Cs(r):	-0.1657752	-0.14162282	-0.024152374	0

    writing force and moment coefficient files.

Time = 46

DILUPBiCGStab:  Solving for Ux, Initial residual = 0.00075578125, Final residual = 2.485782e-06, No Iterations 1
DILUPBiCGStab:  Solving for Uy, Initial residual = 0.0021326313, Final residual = 4.9361713e-06, No Iterations 1
DILUPBiCGStab:  Solving for e, Initial residual = 0.022752955, Final residual = 0.001279846, No Iterations 1
GAMG:  Solving for p, Initial residual = 0.10090629, Final residual = 0.00092803616, No Iterations 4
time step continuity errors : sum local = 2.6038594e-06, global = -1.0186892e-07, cumulative = -1.9303795e-05
DILUPBiCGStab:  Solving for omega, Initial residual = 9.4010901e-05, Final residual = 2.4323649e-06, No Iterations 1
DILUPBiCGStab:  Solving for k, Initial residual = 0.0086671062, Final residual = 0.00032539226, No Iterations 1
ExecutionTime = 42.69 s  ClockTime = 42 s

forceCoeffs forces write:
    Coefficient	Total	Pressure	Viscous	Internal
    Cd:	0.33135327	0.28367471	0.047678563	0
    Cd(f):	0.22986411	0.20587092	0.023993195	0
    Cd(r):	0.10148916	0.077803792	0.023685368	0
    Cl:	-0.12837495	-0.12806713	-0.00030782745	0
    Cl(f):	-0.064257318	-0.064033563	-0.00022375442	0
    Cl(r):	-0.064117636	-0.064033563	-8.4073032e-05	0
    CmPitch:	-6.9840693e-05	2.4683982e-13	-6.9840693e-05	0
    CmRoll:	0.064187477	0.064033563	0.00015391373	0
    CmYaw:	0.16567664	0.14183736	0.023839282	0
    Cs:	-3.1103225e-20	3.7335999e-20	-6.8439224e-20	0
    Cs(f):	0.16567664	0.14183736	0.023839282	0
    Cs(r):	-0.16567664	-0.14183736	-0.023839282	0

    writing force and moment coefficient files.

Time = 47

DILUPBiCGStab:  Solving for Ux, Initial residual = 0.00075878439, Final residual = 2.4896272e-06, No Iterations 1
DILUPBiCGStab:  Solving for Uy, Initial residual = 0.0021602373, Final residual = 4.9367458e-06, No Iterations 1
DILUPBiCGStab:  Solving for e, Initial residual = 0.02251571, Final residual = 0.0012821538, No Iterations 1
GAMG:  Solving for p, Initial residual = 0.1066165, Final residual = 0.00081097435, No Iterations 6
time step continuity errors : sum local = 2.2687562e-06, global = 2.3805361e-07, cumulative = -1.9065742e-05
DILUPBiCGStab:  Solving for omega, Initial residual = 9.1063295e-05, Final residual = 2.3704329e-06, No Iterations 1
DILUPBiCGStab:  Solving for k, Initial residual = 0.008338909, Final residual = 0.00032370974, No Iterations 1
ExecutionTime = 43.41 s  ClockTime = 43 s

forceCoeffs forces write:
    Coefficient	Total	Pressure	Viscous	Internal
    Cd:	0.32819194	0.28111768	0.047074258	0
    Cd(f):	0.23017434	0.20648351	0.023690835	0
    Cd(r):	0.098017597	0.074634173	0.023383423	0
    Cl:	-0.13215675	-0.13184933	-0.00030741142	0
    Cl(f):	-0.066144363	-0.065924667	-0.00021969591	0
    Cl(r):	-0.066012383	-0.065924667	-8.7715501e-05	0
    CmPitch:	-6.5990206e-05	2.021237e-13	-6.5990206e-05	0
    CmRoll:	0.066078373	0.065924667	0.00015370571	0
    CmYaw:	0.16409597	0.14055884	0.023537129	0
    Cs:	-3.1121933e-20	3.7341673e-20	-6.8463606e-20	0
    Cs(f):	0.16409597	0.14055884	0.023537129	0
    Cs(r):	-0.16409597	-0.14055884	-0.023537129	0

    writing force and moment coefficient files.

Time = 48

DILUPBiCGStab:  Solving for Ux, Initial residual = 0.00076305296, Final residual = 2.4868647e-06, No Iterations 1
DILUPBiCGStab:  Solving for Uy, Initial residual = 0.0022147384, Final residual = 5.0319848e-06, No Iterations 1
DILUPBiCGStab:  Solving for e, Initial residual = 0.022316756, Final residual = 0.0012633355, No Iterations 1
GAMG:  Solving for p, Initial residual = 0.11395845, Final residual = 0.00090796397, No Iterations 6
time step continuity errors : sum local = 2.5606561e-06, global = 3.0469497e-07, cumulative = -1.8761047e-05
DILUPBiCGStab:  Solving for omega, Initial residual = 8.8091207e-05, Final residual = 2.3496395e-06, No Iterations 1
DILUPBiCGStab:  Solving for k, Initial residual = 0.0080324186, Final residual = 0.00032339992, No Iterations 1
ExecutionTime = 44.09 s  ClockTime = 44 s

forceCoeffs forces write:
    Coefficient	Total	Pressure	Viscous	Internal
    Cd:	0.32213381	0.27564375	0.046490057	0
    Cd(f):	0.22888423	0.20548543	0.023398804	0
    Cd(r):	0.093249576	0.070158324	0.023091252	0
    Cl:	-0.13563465	-0.1353271	-0.00030755197	0
    Cl(f):	-0.067879439	-0.067663551	-0.00021588707	0
    Cl(r):	-0.067755216	-0.067663551	-9.16649e-05	0
    CmPitch:	-6.2111087e-05	1.6292059e-13	-6.2111088e-05	0
    CmRoll:	0.067817327	0.067663551	0.00015377599	0
    CmYaw:	0.1610669	0.13782188	0.023245028	0
    Cs:	-3.1143807e-20	3.7340172e-20	-6.8483979e-20	0
    Cs(f):	0.1610669	0.13782188	0.023245028	0
    Cs(r):	-0.1610669	-0.13782188	-0.023245028	0

    writing force and moment coefficient files.

Time = 49

DILUPBiCGStab:  Solving for Ux, Initial residual = 0.00075516066, Final residual = 2.480964e-06, No Iterations 1
DILUPBiCGStab:  Solving for Uy, Initial residual = 0.00218722, Final residual = 5.0417284e-06, No Iterations 1
DILUPBiCGStab:  Solving for e, Initial residual = 0.022100412, Final residual = 0.0012647046, No Iterations 1
GAMG:  Solving for p, Initial residual = 0.11041777, Final residual = 0.0008865741, No Iterations 6
time step continuity errors : sum local = 2.5159731e-06, global = 3.3413124e-07, cumulative = -1.8426915e-05
DILUPBiCGStab:  Solving for omega, Initial residual = 8.5331884e-05, Final residual = 2.2913456e-06, No Iterations 1
DILUPBiCGStab:  Solving for k, Initial residual = 0.0077399799, Final residual = 0.00032337653, No Iterations 1
ExecutionTime = 44.74 s  ClockTime = 44 s

forceCoeffs forces write:
    Coefficient	Total	Pressure	Viscous	Internal
    Cd:	0.31076239	0.26483848	0.045923902	0
    Cd(f):	0.22519081	0.20207472	0.023116085	0
    Cd(r):	0.085571579	0.062763762	0.022807817	0
    Cl:	-0.13961923	-0.13931096	-0.00030826746	0
    Cl(f):	-0.06986781	-0.06965548	-0.00021232923	0
    Cl(r):	-0.069751419	-0.06965548	-9.5938229e-05	0
    CmPitch:	-5.8195501e-05	1.2457767e-13	-5.8195501e-05	0
    CmRoll:	0.069809614	0.06965548	0.00015413373	0
    CmYaw:	0.15538119	0.13241924	0.022961951	0
    Cs:	-3.1170022e-20	3.7328621e-20	-6.8498643e-20	0
    Cs(f):	0.15538119	0.13241924	0.022961951	0
    Cs(r):	-0.15538119	-0.13241924	-0.022961951	0

    writing force and moment coefficient files.

Time = 50

DILUPBiCGStab:  Solving for Ux, Initial residual = 0.00073413513, Final residual = 2.4747755e-06, No Iterations 1
DILUPBiCGStab:  Solving for Uy, Initial residual = 0.0021317055, Final residual = 4.9423912e-06, No Iterations 1
DILUPBiCGStab:  Solving for e, Initial residual = 0.021926689, Final residual = 0.001253832, No Iterations 1
GAMG:  Solving for p, Initial residual = 0.10088875, Final residual = 0.00074923199, No Iterations 6
time step continuity errors : sum local = 2.1241357e-06, global = 8.0730266e-08, cumulative = -1.8346185e-05
DILUPBiCGStab:  Solving for omega, Initial residual = 8.2747098e-05, Final residual = 2.2339042e-06, No Iterations 1
DILUPBiCGStab:  Solving for k, Initial residual = 0.0074647531, Final residual = 0.00032361796, No Iterations 1
ExecutionTime = 45.44 s  ClockTime = 45 s

forceCoeffs forces write:
    Coefficient	Total	Pressure	Viscous	Internal
    Cd:	0.30649427	0.26111842	0.045375854	0
    Cd(f):	0.22373996	0.20089748	0.022842481	0
    Cd(r):	0.082754306	0.060220933	0.022533373	0
    Cl:	-0.14098566	-0.14067655	-0.00030910836	0
    Cl(f):	-0.070547089	-0.070338275	-0.00020881397	0
    Cl(r):	-0.070438569	-0.070338275	-0.00010029439	0
    CmPitch:	-5.4259787e-05	8.7193696e-14	-5.4259787e-05	0
    CmRoll:	0.070492829	0.070338275	0.00015455418	0
    CmYaw:	0.15324713	0.13055921	0.022687927	0
    Cs:	-3.1195267e-20	3.7324774e-20	-6.8520041e-20	0
    Cs(f):	0.15324713	0.13055921	0.022687927	0
    Cs(r):	-0.15324713	-0.13055921	-0.022687927	0

    writing force and moment coefficient files.

Time = 51

DILUPBiCGStab:  Solving for Ux, Initial residual = 0.00072429466, Final residual = 2.4804343e-06, No Iterations 1
DILUPBiCGStab:  Solving for Uy, Initial residual = 0.0020866617, Final residual = 4.8261054e-06, No Iterations 1
DILUPBiCGStab:  Solving for e, Initial residual = 0.021714151, Final residual = 0.0012386842, No Iterations 1
GAMG:  Solving for p, Initial residual = 0.094037544, Final residual = 0.00077503112, No Iterations 6
time step continuity errors : sum local = 2.1661104e-06, global = -4.1218074e-07, cumulative = -1.8758366e-05
DILUPBiCGStab:  Solving for omega, Initial residual = 8.0259667e-05, Final residual = 2.1784486e-06, No Iterations 1
DILUPBiCGStab:  Solving for k, Initial residual = 0.0072017457, Final residual = 0.00032399372, No Iterations 1
ExecutionTime = 46.12 s  ClockTime = 46 s

forceCoeffs forces write:
    Coefficient	Total	Pressure	Viscous	Internal
    Cd:	0.30145398	0.25660899	0.044844988	0
    Cd(f):	0.22107787	0.1985005	0.022577364	0
    Cd(r):	0.080376115	0.058108492	0.022267624	0
    Cl:	-0.14070175	-0.14039201	-0.00030974044	0
    Cl(f):	-0.070401194	-0.070196005	-0.00020518872	0
    Cl(r):	-0.070300557	-0.070196005	-0.00010455172	0
    CmPitch:	-5.03185e-05	4.6196864e-14	-5.03185e-05	0
    CmRoll:	0.070350875	0.070196005	0.00015487022	0
    CmYaw:	0.15072699	0.1283045	0.022422494	0
    Cs:	-3.1219147e-20	3.7322016e-20	-6.8541163e-20	0
    Cs(f):	0.15072699	0.1283045	0.022422494	0
    Cs(r):	-0.15072699	-0.1283045	-0.022422494	0

    writing force and moment coefficient files.

Time = 52

DILUPBiCGStab:  Solving for Ux, Initial residual = 0.00071746166, Final residual = 2.4690874e-06, No Iterations 1
DILUPBiCGStab:  Solving for Uy, Initial residual = 0.00207356, Final residual = 4.7624068e-06, No Iterations 1
DILUPBiCGStab:  Solving for e, Initial residual = 0.021483246, Final residual = 0.0012218473, No Iterations 1
GAMG:  Solving for p, Initial residual = 0.08885376, Final residual = 0.00081470339, No Iterations 4
time step continuity errors : sum local = 2.2426179e-06, global = -8.86543e-08, cumulative = -1.884702e-05
DILUPBiCGStab:  Solving for omega, Initial residual = 7.8068706e-05, Final residual = 2.0866702e-06, No Iterations 1
DILUPBiCGStab:  Solving for k, Initial residual = 0.0069542624, Final residual = 0.00032154214, No Iterations 1
ExecutionTime = 46.75 s  ClockTime = 46 s

forceCoeffs forces write:
    Coefficient	Total	Pressure	Viscous	Internal
    Cd:	0.30020764	0.25587674	0.044330904	0
    Cd(f):	0.22041323	0.19809268	0.022320545	0
    Cd(r):	0.079794413	0.057784054	0.022010358	0
    Cl:	-0.14061881	-0.14030863	-0.00031018711	0
    Cl(f):	-0.070355782	-0.070154314	-0.00020146797	0
    Cl(r):	-0.070263033	-0.070154314	-0.00010871914	0
    CmPitch:	-4.6374413e-05	3.32708e-14	-4.6374413e-05	0
    CmRoll:	0.070309407	0.070154314	0.00015509356	0
    CmYaw:	0.15010382	0.12793837	0.022165452	0
    Cs:	-3.1240185e-20	3.7322782e-20	-6.8562967e-20	0
    Cs(f):	0.15010382	0.12793837	0.022165452	0
    Cs(r):	-0.15010382	-0.12793837	-0.022165452	0

    writing force and moment coefficient files.

Time = 53

DILUPBiCGStab:  Solving for Ux, Initial residual = 0.00071876103, Final residual = 2.4695405e-06, No Iterations 1
DILUPBiCGStab:  Solving for Uy, Initial residual = 0.0020711219, Final residual = 4.7235842e-06, No Iterations 1
DILUPBiCGStab:  Solving for e, Initial residual = 0.021279739, Final residual = 0.0012030273, No Iterations 1
GAMG:  Solving for p, Initial residual = 0.084651078, Final residual = 0.0005680204, No Iterations 6
time step continuity errors : sum local = 1.5575362e-06, global = -3.0471275e-07, cumulative = -1.9151733e-05
DILUPBiCGStab:  Solving for omega, Initial residual = 7.5962218e-05, Final residual = 2.0111823e-06, No Iterations 1
DILUPBiCGStab:  Solving for k, Initial residual = 0.0067268878, Final residual = 0.00032009192, No Iterations 1
ExecutionTime = 47.43 s  ClockTime = 47 s


    From virtual bool Foam::regIOobject::readIfModified()
    in file db/regIOobject/regIOobjectRead.C at line 266
        Re-reading object controlDict from file "/home/jakub/AE4202/CFD_assignment_SimpleFoam/system/controlDict"
forceCoeffs forces write:
    Coefficient	Total	Pressure	Viscous	Internal
    Cd:	0.29832702	0.25449421	0.043832808	0
    Cd(f):	0.21880958	0.19673802	0.022071553	0
    Cd(r):	0.079517441	0.057756186	0.021761255	0
    Cl:	-0.13929214	-0.13898184	-0.00031029802	0
    Cl(f):	-0.069688485	-0.069490919	-0.0001975656	0
    Cl(r):	-0.069603652	-0.069490919	-0.00011273241	0
    CmPitch:	-4.2416596e-05	-1.0475308e-14	-4.2416596e-05	0
    CmRoll:	0.069646068	0.069490919	0.00015514901	0
    CmYaw:	0.14916351	0.12724711	0.021916404	0
    Cs:	-3.125461e-20	3.7327093e-20	-6.8581703e-20	0
    Cs(f):	0.14916351	0.12724711	0.021916404	0
    Cs(r):	-0.14916351	-0.12724711	-0.021916404	0

    writing force and moment coefficient files.

Time = 54

DILUPBiCGStab:  Solving for Ux, Initial residual = 0.00071252222, Final residual = 2.4519095e-06, No Iterations 1
DILUPBiCGStab:  Solving for Uy, Initial residual = 0.0020630187, Final residual = 4.7552119e-06, No Iterations 1
DILUPBiCGStab:  Solving for e, Initial residual = 0.021091401, Final residual = 0.0011836158, No Iterations 1
[...]
    Cl(f):	0.0060344832	0.0052933879	0.00074109532	0
    Cl(r):	0.0047276262	0.0052933879	-0.0005657617	0
    CmPitch:	0.00065342851	-4.3104867e-13	0.00065342851	0
    CmRoll:	-0.0053810547	-0.0052933879	-8.7666807e-05	0
    CmYaw:	0.1854081	0.1756831	0.0097249988	0
    Cs:	-3.0586801e-20	3.7926855e-20	-6.8513656e-20	0
    Cs(f):	0.1854081	0.1756831	0.0097249988	0
    Cs(r):	-0.1854081	-0.1756831	-0.0097249988	0

    writing force and moment coefficient files.

Time = 196

DILUPBiCGStab:  Solving for Ux, Initial residual = 0.00065313969, Final residual = 2.3455319e-06, No Iterations 1
DILUPBiCGStab:  Solving for Uy, Initial residual = 0.0017263888, Final residual = 4.3093835e-06, No Iterations 1
DILUPBiCGStab:  Solving for e, Initial residual = 0.019287134, Final residual = 0.00085257166, No Iterations 1
GAMG:  Solving for p, Initial residual = 0.085328747, Final residual = 0.00052717439, No Iterations 6
time step continuity errors : sum local = 1.7675163e-06, global = -2.5491503e-07, cumulative = -1.3658662e-05
DILUPBiCGStab:  Solving for omega, Initial residual = 9.26692e-06, Final residual = 4.4279602e-07, No Iterations 1
DILUPBiCGStab:  Solving for k, Initial residual = 0.001577735, Final residual = 0.00010475433, No Iterations 1
ExecutionTime = 147.63 s  ClockTime = 147 s

fieldAverage fieldAverage1 write:
    Calculating averages

forceCoeffs forces write:
    Coefficient	Total	Pressure	Viscous	Internal
    Cd:	0.36416976	0.34477575	0.019394011	0
    Cd(f):	0.1770183	0.16741362	0.0096046794	0
    Cd(r):	0.18715146	0.17736212	0.009789332	0
    Cl:	0.010133154	0.0099485017	0.00018465264	0
    Cl(f):	0.005720468	0.0049742508	0.00074621718	0
    Cl(r):	0.0044126863	0.0049742508	-0.00056156454	0
    CmPitch:	0.00065389086	-4.3647544e-13	0.00065389086	0
    CmRoll:	-0.0050665772	-0.0049742508	-9.2326319e-05	0
    CmYaw:	0.18208488	0.17238787	0.0096970057	0
    Cs:	-3.0586438e-20	3.7924634e-20	-6.8511072e-20	0
    Cs(f):	0.18208488	0.17238787	0.0096970057	0
    Cs(r):	-0.18208488	-0.17238787	-0.0096970057	0

    writing force and moment coefficient files.

Time = 197

DILUPBiCGStab:  Solving for Ux, Initial residual = 0.0006554044, Final residual = 2.3732695e-06, No Iterations 1
DILUPBiCGStab:  Solving for Uy, Initial residual = 0.0016402137, Final residual = 4.2536777e-06, No Iterations 1
DILUPBiCGStab:  Solving for e, Initial residual = 0.019295082, Final residual = 0.00085723112, No Iterations 1
GAMG:  Solving for p, Initial residual = 0.07758471, Final residual = 0.00047519079, No Iterations 6
time step continuity errors : sum local = 1.5919127e-06, global = -2.147213e-07, cumulative = -1.3873384e-05
DILUPBiCGStab:  Solving for omega, Initial residual = 9.1380635e-06, Final residual = 4.4145794e-07, No Iterations 1
DILUPBiCGStab:  Solving for k, Initial residual = 0.0015680368, Final residual = 0.00010410775, No Iterations 1
ExecutionTime = 148.3 s  ClockTime = 148 s

fieldAverage fieldAverage1 write:
    Calculating averages

forceCoeffs forces write:
    Coefficient	Total	Pressure	Viscous	Internal
    Cd:	0.3594363	0.34009858	0.019337724	0
    Cd(f):	0.17412286	0.164551	0.0095718568	0
    Cd(r):	0.18531344	0.17554758	0.0097658673	0
    Cl:	0.011190583	0.010996572	0.00019401047	0
    Cl(f):	0.0062496058	0.0054982862	0.00075131957	0
    Cl(r):	0.0049409771	0.0054982862	-0.00055730909	0
    CmPitch:	0.00065431433	-4.320558e-13	0.00065431433	0
    CmRoll:	-0.0055952915	-0.0054982862	-9.7005237e-05	0
    CmYaw:	0.17971815	0.17004929	0.009668862	0
    Cs:	-3.0591037e-20	3.7918388e-20	-6.8509426e-20	0
    Cs(f):	0.17971815	0.17004929	0.009668862	0
    Cs(r):	-0.17971815	-0.17004929	-0.009668862	0

    writing force and moment coefficient files.

Time = 198

DILUPBiCGStab:  Solving for Ux, Initial residual = 0.00064289552, Final residual = 2.3842488e-06, No Iterations 1
DILUPBiCGStab:  Solving for Uy, Initial residual = 0.0015873805, Final residual = 4.1685964e-06, No Iterations 1
DILUPBiCGStab:  Solving for e, Initial residual = 0.019320437, Final residual = 0.00086088423, No Iterations 1
GAMG:  Solving for p, Initial residual = 0.067977947, Final residual = 0.00048298871, No Iterations 6
time step continuity errors : sum local = 1.6062e-06, global = -1.4601176e-07, cumulative = -1.4019395e-05
DILUPBiCGStab:  Solving for omega, Initial residual = 9.0421656e-06, Final residual = 4.4037375e-07, No Iterations 1
DILUPBiCGStab:  Solving for k, Initial residual = 0.0015586817, Final residual = 0.00010357695, No Iterations 1
ExecutionTime = 148.98 s  ClockTime = 149 s

fieldAverage fieldAverage1 write:
    Calculating averages

forceCoeffs forces write:
    Coefficient	Total	Pressure	Viscous	Internal
    Cd:	0.35738131	0.33809955	0.019281758	0
    Cd(f):	0.17241939	0.16288021	0.0095391801	0
    Cd(r):	0.18496191	0.17521934	0.0097425778	0
    Cl:	0.012542519	0.012339121	0.00020339777	0
    Cl(f):	0.0069259609	0.0061695604	0.00075640046	0
    Cl(r):	0.0056165578	0.0061695604	-0.00055300269	0
    CmPitch:	0.00065470158	-4.2370271e-13	0.00065470158	0
    CmRoll:	-0.0062712593	-0.0061695604	-0.00010169888	0
    CmYaw:	0.17869065	0.16904978	0.009640879	0
    Cs:	-3.0597392e-20	3.7918328e-20	-6.851572e-20	0
    Cs(f):	0.17869065	0.16904978	0.009640879	0
    Cs(r):	-0.17869065	-0.16904978	-0.009640879	0

    writing force and moment coefficient files.

Time = 199

DILUPBiCGStab:  Solving for Ux, Initial residual = 0.00062948202, Final residual = 2.3550759e-06, No Iterations 1
DILUPBiCGStab:  Solving for Uy, Initial residual = 0.0015884098, Final residual = 4.226191e-06, No Iterations 1
DILUPBiCGStab:  Solving for e, Initial residual = 0.019361965, Final residual = 0.00086417891, No Iterations 1
GAMG:  Solving for p, Initial residual = 0.064220694, Final residual = 0.00040276606, No Iterations 6
time step continuity errors : sum local = 1.2980455e-06, global = -1.3571912e-07, cumulative = -1.4155115e-05
DILUPBiCGStab:  Solving for omega, Initial residual = 8.9793976e-06, Final residual = 4.4015847e-07, No Iterations 1
DILUPBiCGStab:  Solving for k, Initial residual = 0.0015504314, Final residual = 0.00010298134, No Iterations 1
ExecutionTime = 149.66 s  ClockTime = 149 s

fieldAverage fieldAverage1 write:
    Calculating averages

forceCoeffs forces write:
    Coefficient	Total	Pressure	Viscous	Internal
    Cd:	0.35749082	0.33826424	0.019226581	0
    Cd(f):	0.17173364	0.16222678	0.009506859	0
    Cd(r):	0.18575718	0.17603746	0.009719722	0
    Cl:	0.014023541	0.013810678	0.00021286301	0
    Cl(f):	0.0076668409	0.006905339	0.00076150193	0
    Cl(r):	0.0063567001	0.006905339	-0.00054863892	0
    CmPitch:	0.00065507042	-4.3340692e-13	0.00065507042	0
    CmRoll:	-0.0070117705	-0.006905339	-0.00010643151	0
    CmYaw:	0.17874541	0.16913212	0.0096132905	0
    Cs:	-3.0598354e-20	3.7922439e-20	-6.8520793e-20	0
    Cs(f):	0.17874541	0.16913212	0.0096132905	0
    Cs(r):	-0.17874541	-0.16913212	-0.0096132905	0

    writing force and moment coefficient files.

Time = 200

DILUPBiCGStab:  Solving for Ux, Initial residual = 0.00062406588, Final residual = 2.3397157e-06, No Iterations 1
DILUPBiCGStab:  Solving for Uy, Initial residual = 0.0016137249, Final residual = 4.3040089e-06, No Iterations 1
DILUPBiCGStab:  Solving for e, Initial residual = 0.01939791, Final residual = 0.00086766508, No Iterations 1
GAMG:  Solving for p, Initial residual = 0.075512561, Final residual = 0.00069588743, No Iterations 5
time step continuity errors : sum local = 2.2487026e-06, global = 3.9977517e-07, cumulative = -1.3755339e-05
DILUPBiCGStab:  Solving for omega, Initial residual = 8.9111068e-06, Final residual = 4.394761e-07, No Iterations 1
DILUPBiCGStab:  Solving for k, Initial residual = 0.0015424568, Final residual = 0.0001023929, No Iterations 1
ExecutionTime = 150.32 s  ClockTime = 150 s

fieldAverage fieldAverage1 write:
    Calculating averages

forceCoeffs forces write:
    Coefficient	Total	Pressure	Viscous	Internal
    Cd:	0.35963199	0.34045946	0.019172532	0
    Cd(f):	0.17156207	0.16208711	0.0094749608	0
    Cd(r):	0.18806992	0.17837235	0.0096975708	0
    Cl:	0.016507847	0.016285237	0.00022260994	0
    Cl(f):	0.0089093409	0.0081426186	0.00076672226	0
    Cl(r):	0.0075985063	0.0081426186	-0.00054411232	0
    CmPitch:	0.00065541729	-4.3312868e-13	0.00065541729	0
    CmRoll:	-0.0082539236	-0.0081426186	-0.00011130497	0
    CmYaw:	0.17981599	0.17022973	0.0095862658	0
    Cs:	-3.0596655e-20	3.7931677e-20	-6.8528332e-20	0
    Cs(f):	0.17981599	0.17022973	0.0095862658	0
    Cs(r):	-0.17981599	-0.17022973	-0.0095862658	0

    writing force and moment coefficient files.

Time = 201

DILUPBiCGStab:  Solving for Ux, Initial residual = 0.00062851711, Final residual = 2.3361421e-06, No Iterations 1
DILUPBiCGStab:  Solving for Uy, Initial residual = 0.0016408072, Final residual = 4.2979639e-06, No Iterations 1
DILUPBiCGStab:  Solving for e, Initial residual = 0.019483611, Final residual = 0.00087095166, No Iterations 1
GAMG:  Solving for p, Initial residual = 0.081886708, Final residual = 0.0006767651, No Iterations 5
time step continuity errors : sum local = 2.1855035e-06, global = -1.6630549e-07, cumulative = -1.3921645e-05
DILUPBiCGStab:  Solving for omega, Initial residual = 8.8919387e-06, Final residual = 4.3948454e-07, No Iterations 1
DILUPBiCGStab:  Solving for k, Initial residual = 0.0015350878, Final residual = 0.00010192896, No Iterations 1
ExecutionTime = 150.98 s  ClockTime = 151 s

fieldAverage fieldAverage1 write:
    Calculating averages

forceCoeffs forces write:
    Coefficient	Total	Pressure	Viscous	Internal
    Cd:	0.36011119	0.34099184	0.019119348	0
    Cd(f):	0.17070204	0.16125866	0.0094433822	0
    Cd(r):	0.18940914	0.17973318	0.0096759658	0
    Cl:	0.0187071	0.018474516	0.00023258358	0
    Cl(f):	0.010009295	0.0092372581	0.00077203733	0
    Cl(r):	0.0086978043	0.0092372581	-0.00053945375	0
    CmPitch:	0.00065574554	-4.2412851e-13	0.00065574554	0
    CmRoll:	-0.0093535499	-0.0092372581	-0.00011629179	0
    CmYaw:	0.18005559	0.17049592	0.009559674	0
    Cs:	-3.0595773e-20	3.7935732e-20	-6.8531505e-20	0
    Cs(f):	0.18005559	0.17049592	0.009559674	0
    Cs(r):	-0.18005559	-0.17049592	-0.009559674	0

    writing force and moment coefficient files.

Time = 202

DILUPBiCGStab:  Solving for Ux, Initial residual = 0.00063011104, Final residual = 2.3494427e-06, No Iterations 1
DILUPBiCGStab:  Solving for Uy, Initial residual = 0.0015968323, Final residual = 4.2909437e-06, No Iterations 1
DILUPBiCGStab:  Solving for e, Initial residual = 0.01952712, Final residual = 0.00087341059, No Iterations 1
GAMG:  Solving for p, Initial residual = 0.070821027, Final residual = 0.00048155411, No Iterations 5
time step continuity errors : sum local = 1.5502226e-06, global = 2.9675847e-07, cumulative = -1.3624886e-05
DILUPBiCGStab:  Solving for omega, Initial residual = 8.7557437e-06, Final residual = 4.3867563e-07, No Iterations 1
DILUPBiCGStab:  Solving for k, Initial residual = 0.0015275536, Final residual = 0.00010140361, No Iterations 1
ExecutionTime = 151.61 s  ClockTime = 151 s

fieldAverage fieldAverage1 write:
    Calculating averages

forceCoeffs forces write:
    Coefficient	Total	Pressure	Viscous	Internal
    Cd:	0.35884883	0.33978218	0.019066647	0
    Cd(f):	0.16939896	0.15998693	0.0094120304	0
    Cd(r):	0.18944987	0.17979525	0.0096546168	0
    Cl:	0.020050914	0.019808328	0.00024258648	0
    Cl(f):	0.010681519	0.0099041638	0.00077735483	0
    Cl(r):	0.0093693955	0.0099041638	-0.00053476836	0
    CmPitch:	0.0006560616	-4.1385053e-13	0.0006560616	0
    CmRoll:	-0.010025457	-0.0099041638	-0.00012129324	0
    CmYaw:	0.17942441	0.16989109	0.0095333236	0
    Cs:	-3.059648e-20	3.7934709e-20	-6.8531189e-20	0
    Cs(f):	0.17942441	0.16989109	0.0095333236	0
    Cs(r):	-0.17942441	-0.16989109	-0.0095333236	0

    writing force and moment coefficient files.

Time = 203

DILUPBiCGStab:  Solving for Ux, Initial residual = 0.00063411768, Final residual = 2.3628379e-06, No Iterations 1
DILUPBiCGStab:  Solving for Uy, Initial residual = 0.0015273825, Final residual = 4.2617053e-06, No Iterations 1
DILUPBiCGStab:  Solving for e, Initial residual = 0.019552028, Final residual = 0.00087769807, No Iterations 1
GAMG:  Solving for p, Initial residual = 0.061078581, Final residual = 0.00050643103, No Iterations 5
time step continuity errors : sum local = 1.6301919e-06, global = -3.4127581e-07, cumulative = -1.3966162e-05
DILUPBiCGStab:  Solving for omega, Initial residual = 8.6964746e-06, Final residual = 4.3770642e-07, No Iterations 1
DILUPBiCGStab:  Solving for k, Initial residual = 0.0015209832, Final residual = 0.0001008277, No Iterations 1
ExecutionTime = 152.26 s  ClockTime = 152 s

fieldAverage fieldAverage1 write:
    Calculating averages

forceCoeffs forces write:
    Coefficient	Total	Pressure	Viscous	Internal
    Cd:	0.36046079	0.34144593	0.019014857	0
    Cd(f):	0.16993369	0.16055248	0.0093812194	0
    Cd(r):	0.19052709	0.18089346	0.0096336372	0
    Cl:	0.020593398	0.02034098	0.00025241784	0
    Cl(f):	0.010953064	0.01017049	0.00078257427	0
    Cl(r):	0.0096403336	0.01017049	-0.00053015644	0
    CmPitch:	0.00065636535	-3.9446398e-13	0.00065636535	0
    CmRoll:	-0.010296699	-0.01017049	-0.00012620892	0
    CmYaw:	0.18023039	0.17072297	0.0095074283	0
    Cs:	-3.0593047e-20	3.7940691e-20	-6.8533738e-20	0
    Cs(f):	0.18023039	0.17072297	0.0095074283	0
    Cs(r):	-0.18023039	-0.17072297	-0.0095074283	0

    writing force and moment coefficient files.

Time = 204

DILUPBiCGStab:  Solving for Ux, Initial residual = 0.00062571436, Final residual = 2.3723069e-06, No Iterations 1
DILUPBiCGStab:  Solving for Uy, Initial residual = 0.0015329545, Final residual = 4.2163632e-06, No Iterations 1
DILUPBiCGStab:  Solving for e, Initial residual = 0.019606708, Final residual = 0.00088085615, No Iterations 1
GAMG:  Solving for p, Initial residual = 0.057243997, Final residual = 0.00045008386, No Iterations 6
time step continuity errors : sum local = 1.4544473e-06, global = 1.0363522e-07, cumulative = -1.3862527e-05
DILUPBiCGStab:  Solving for omega, Initial residual = 8.6565874e-06, Final residual = 4.3703466e-07, No Iterations 1
DILUPBiCGStab:  Solving for k, Initial residual = 0.001514735, Final residual = 0.00010030437, No Iterations 1
ExecutionTime = 154.24 s  ClockTime = 154 s

fieldAverage fieldAverage1 write:
    Calculating averages

    Writing average fields

forceCoeffs forces write:
    Coefficient	Total	Pressure	Viscous	Internal
    Cd:	0.36652916	0.3475644	0.01896476	0
    Cd(f):	0.1732767	0.16392527	0.0093514341	0
    Cd(r):	0.19325246	0.18363913	0.0096133263	0
    Cl:	0.019975757	0.019713865	0.00026189213	0
    Cl(f):	0.010644555	0.0098569323	0.00078762242	0
    Cl(r):	0.009331202	0.0098569323	-0.00052573029	0
    CmPitch:	0.00065667635	-3.6978988e-13	0.00065667636	0
    CmRoll:	-0.0099878784	-0.0098569323	-0.00013094606	0
    CmYaw:	0.18326458	0.1737822	0.0094823802	0
    Cs:	-3.0585497e-20	3.7956533e-20	-6.854203e-20	0
    Cs(f):	0.18326458	0.1737822	0.0094823802	0
    Cs(r):	-0.18326458	-0.1737822	-0.0094823802	0

    writing force and moment coefficient files.

Time = 205

DILUPBiCGStab:  Solving for Ux, Initial residual = 0.00061547415, Final residual = 2.3534041e-06, No Iterations 1
DILUPBiCGStab:  Solving for Uy, Initial residual = 0.0015553204, Final residual = 4.2657631e-06, No Iterations 1
DILUPBiCGStab:  Solving for e, Initial residual = 0.019616067, Final residual = 0.00088290439, No Iterations 1
GAMG:  Solving for p, Initial residual = 0.066899174, Final residual = 0.00047962929, No Iterations 5
time step continuity errors : sum local = 1.5551707e-06, global = -1.4091429e-07, cumulative = -1.4003441e-05
DILUPBiCGStab:  Solving for omega, Initial residual = 8.6472614e-06, Final residual = 4.3717559e-07, No Iterations 1
DILUPBiCGStab:  Solving for k, Initial residual = 0.0015092606, Final residual = 9.9900584e-05, No Iterations 1
ExecutionTime = 155.99 s  ClockTime = 156 s

fieldAverage fieldAverage1 write:
    Calculating averages

forceCoeffs forces write:
    Coefficient	Total	Pressure	Viscous	Internal
    Cd:	0.36993193	0.35101604	0.018915894	0
    Cd(f):	0.17485498	0.16553263	0.0093223502	0
    Cd(r):	0.19507695	0.18548341	0.0095935435	0
    Cl:	0.020221969	0.019950776	0.00027119328	0
    Cl(f):	0.010767981	0.0099753878	0.00079259298	0
    Cl(r):	0.0094539881	0.0099753878	-0.00052139971	0
    CmPitch:	0.00065699634	-3.5735179e-13	0.00065699634	0
    CmRoll:	-0.010110984	-0.0099753878	-0.00013559664	0
    CmYaw:	0.18496597	0.17550802	0.0094579469	0
    Cs:	-3.0580957e-20	3.7967818e-20	-6.8548775e-20	0
    Cs(f):	0.18496597	0.17550802	0.0094579469	0
    Cs(r):	-0.18496597	-0.17550802	-0.0094579469	0

    writing force and moment coefficient files.

Time = 206

DILUPBiCGStab:  Solving for Ux, Initial residual = 0.00062234206, Final residual = 2.3523248e-06, No Iterations 1
DILUPBiCGStab:  Solving for Uy, Initial residual = 0.0015754984, Final residual = 4.3440731e-06, No Iterations 1
DILUPBiCGStab:  Solving for e, Initial residual = 0.019695416, Final residual = 0.00088560263, No Iterations 1
GAMG:  Solving for p, Initial residual = 0.06607903, Final residual = 0.00045859234, No Iterations 6
time step continuity errors : sum local = 1.4785629e-06, global = 1.7523565e-07, cumulative = -1.3828206e-05
DILUPBiCGStab:  Solving for omega, Initial residual = 8.5617081e-06, Final residual = 4.3667369e-07, No Iterations 1
DILUPBiCGStab:  Solving for k, Initial residual = 0.0015032288, Final residual = 9.9419187e-05, No Iterations 1
ExecutionTime = 156.71 s  ClockTime = 156 s

fieldAverage fieldAverage1 write:
    Calculating averages

forceCoeffs forces write:
    Coefficient	Total	Pressure	Viscous	Internal
    Cd:	0.37249681	0.35362886	0.01886795	0
    Cd(f):	0.17477556	0.16548197	0.0092935905	0
    Cd(r):	0.19772125	0.18814689	0.0095743597	0
    Cl:	0.022945694	0.022664925	0.00028076916	0
    Cl(f):	0.012130175	0.011332462	0.00079771244	0
    Cl(r):	0.010815519	0.011332462	-0.00051694328	0
    CmPitch:	0.00065732786	-3.3399383e-13	0.00065732786	0
    CmRoll:	-0.011472847	-0.011332462	-0.00014038458	0
    CmYaw:	0.18624841	0.17681443	0.0094339751	0
    Cs:	-3.0574505e-20	3.7973482e-20	-6.8547987e-20	0
    Cs(f):	0.18624841	0.17681443	0.0094339751	0
    Cs(r):	-0.18624841	-0.17681443	-0.0094339751	0

    writing force and moment coefficient files.

Time = 207

DILUPBiCGStab:  Solving for Ux, Initial residual = 0.00062994303, Final residual = 2.3827997e-06, No Iterations 1
DILUPBiCGStab:  Solving for Uy, Initial residual = 0.0015308467, Final residual = 4.3102902e-06, No Iterations 1
DILUPBiCGStab:  Solving for e, Initial residual = 0.019722566, Final residual = 0.00088843526, No Iterations 1
GAMG:  Solving for p, Initial residual = 0.06219269, Final residual = 0.00048108581, No Iterations 5
time step continuity errors : sum local = 1.5902657e-06, global = 2.6179259e-07, cumulative = -1.3566413e-05
DILUPBiCGStab:  Solving for omega, Initial residual = 8.5101113e-06, Final residual = 4.3654049e-07, No Iterations 1
DILUPBiCGStab:  Solving for k, Initial residual = 0.0014980443, Final residual = 9.8981784e-05, No Iterations 1
ExecutionTime = 157.42 s  ClockTime = 157 s

fieldAverage fieldAverage1 write:
    Calculating averages

forceCoeffs forces write:
    Coefficient	Total	Pressure	Viscous	Internal
    Cd:	0.37287806	0.35405753	0.018820527	0
    Cd(f):	0.17467451	0.1654094	0.0092651075	0
    Cd(r):	0.19820355	0.18864813	0.0095554197	0
    Cl:	0.02352904	0.023238728	0.00029031222	0
    Cl(f):	0.0124222	0.011619364	0.00080283569	0
    Cl(r):	0.011106841	0.011619364	-0.00051252348	0
    CmPitch:	0.00065767959	-3.2521669e-13	0.00065767959	0
    CmRoll:	-0.01176452	-0.011619364	-0.00014515611	0
    CmYaw:	0.18643903	0.17702876	0.0094102636	0
    Cs:	-3.0575348e-20	3.7976707e-20	-6.8552056e-20	0
    Cs(f):	0.18643903	0.17702876	0.0094102636	0
    Cs(r):	-0.18643903	-0.17702876	-0.0094102636	0

    writing force and moment coefficient files.

Time = 208

