/*---------------------------------------------------------------------------*\
| =========                 |                                                 |
| \\      /  F ield         | OpenFOAM: The Open Source CFD Toolbox           |
|  \\    /   O peration     | Version:  2406                                  |
|   \\  /    A nd           | Website:  www.openfoam.com                      |
|    \\/     M anipulation  |                                                 |
\*---------------------------------------------------------------------------*/
Build  : _52c02cff-20240620 OPENFOAM=2406 version=2406
Arch   : "LSB;label=32;scalar=64"
Exec   : rhoPimpleFoam
Date   : Oct 26 2024
Time   : 18:01:01
Host   : fedora
PID    : 53336
I/O    : uncollated
Case   : /home/wojtek/Delft/MSc/CFD/assignment
nProcs : 1
trapFpe: Floating point exception trapping enabled (FOAM_SIGFPE).
fileModificationChecking : Monitoring run-time modified files using timeStampMaster (fileModificationSkew 5, maxFileModificationPolls 20)
allowSystemOperations : Allowing user-supplied system call operations

// * * * * * * * * * * * * * * * * * * * * * * * * * * * * * * * * * * * * * //
Create time

Create mesh for time = 0


PIMPLE: Operating solver in PISO mode

Reading thermophysical properties

Selecting thermodynamics package 
{
    type            hePsiThermo;
    mixture         pureMixture;
    transport       sutherland;
    thermo          hConst;
    equationOfState perfectGas;
    specie          specie;
    energy          sensibleInternalEnergy;
}

Reading field U

Reading/calculating face flux field phi

Creating turbulence model

Selecting turbulence model type RAS
Selecting RAS turbulence model kOmegaSST
Selecting patchDistMethod meshWave
RAS
{
    RASModel        kOmegaSST;
    turbulence      on;
    printCoeffs     on;
    alphaK1         0.85;
    alphaK2         1;
    alphaOmega1     0.5;
    alphaOmega2     0.856;
    gamma1          0.55555556;
    gamma2          0.44;
    beta1           0.075;
    beta2           0.0828;
    betaStar        0.09;
    a1              0.31;
    b1              1;
    c1              10;
    F3              false;
    decayControl    false;
    kInf            0;
    omegaInf        0;
}

Creating field dpdt

Creating field kinetic energy K

No MRF models present

No finite volume options present
Courant Number mean: 1.1775836e-07 max: 1.0517629e-06
fieldAverage fieldAverage1:
    Restarting averaging for fields:
        U: starting averaging at time 0
        p: starting averaging at time 0
        nut: starting averaging at time 0
        T: starting averaging at time 0

forceCoeffs forces:
    p: p
    U: U
    rho: rhoInf
    Freestream density (rhoInf) set to 1
    Not including porosity effects
    magUInf: 0.15
    lRef   : 1
    Aref   : 1
    rhoInf : 1
    Selecting all coefficients
    - Drag force: Cd
    - Drag force front: Cd(f)
    - Drag force rear: Cd(r)
    - Lift force: Cl
    - Lift force front: Cl(f)
    - Lift force rear: Cl(r)
    - Pitch moment: CmPitch
    - Roll moment: CmRoll
    - Yaw moment: CmYaw
    - Side force: Cs
    - Side force front: Cs(f)
    - Side force rear: Cs(r)


Sampled set:
    top -> raw
    bottom -> raw


Starting time loop

Courant Number mean: 1.1775836e-07 max: 1.0517629e-06
deltaT = 6e-08
Time = 6e-08

PIMPLE: iteration 1
diagonal:  Solving for rho, Initial residual = 0, Final residual = 0, No Iterations 0
smoothSolver:  Solving for Ux, Initial residual = 0.85098137, Final residual = 1.7676111e-05, No Iterations 1000
smoothSolver:  Solving for Uy, Initial residual = 1, Final residual = 3.227648e-13, No Iterations 2
smoothSolver:  Solving for e, Initial residual = 0.68106764, Final residual = 0.00018232839, No Iterations 1000
smoothSolver:  Solving for p, Initial residual = 1, Final residual = 1.5410153e-07, No Iterations 1
diagonal:  Solving for rho, Initial residual = 0, Final residual = 0, No Iterations 0
time step continuity errors : sum local = 9.2926798e-17, global = -6.1732864e-18, cumulative = -6.1732864e-18
smoothSolver:  Solving for p, Initial residual = 7.9868469e-08, Final residual = 7.9868469e-08, No Iterations 0
diagonal:  Solving for rho, Initial residual = 0, Final residual = 0, No Iterations 0
time step continuity errors : sum local = 3.742394e-16, global = -6.1703417e-18, cumulative = -1.2343628e-17
DILUPBiCGStab:  Solving for omega, Initial residual = 7.456359e-07, Final residual = 2.9810517e-21, No Iterations 1
smoothSolver:  Solving for k, Initial residual = 1, Final residual = 3.3191924e-09, No Iterations 1
ExecutionTime = 0.55 s  ClockTime = 1 s

forceCoeffs forces write:
    Coefficient	Total	Pressure	Viscous	Internal
    Cd:	0.044635721	0.00013004197	0.044505679	0
    Cd(f):	0.022337544	6.4624293e-05	0.02227292	0
    Cd(r):	0.022298177	6.5417676e-05	0.022232759	0
    Cl:	-3.9367494e-05	7.9338297e-07	-4.0160877e-05	0
    Cl(f):	-0.00026067857	3.9669149e-07	-0.00026107526	0
    Cl(r):	0.00022131108	3.9669149e-07	0.00022091438	0
    CmPitch:	-0.00024099482	1.1081693e-17	-0.00024099482	0
    CmRoll:	1.9683747e-05	-3.9669148e-07	2.0080439e-05	0
    CmYaw:	0.02231786	6.5020984e-05	0.022252839	0
    Cs:	-1.3690816e-18	-1.2470219e-18	-1.2205967e-19	0
    Cs(f):	0.02231786	6.5020984e-05	0.022252839	0
    Cs(r):	-0.02231786	-6.5020984e-05	-0.022252839	0

    writing force and moment coefficient files.

Courant Number mean: 1.4131004e-07 max: 1.2621155e-06
deltaT = 7.2e-08
Time = 1.32e-07

PIMPLE: iteration 1
diagonal:  Solving for rho, Initial residual = 0, Final residual = 0, No Iterations 0
smoothSolver:  Solving for Ux, Initial residual = 0.041845175, Final residual = 7.1921846e-07, No Iterations 2
smoothSolver:  Solving for Uy, Initial residual = 0.2412027, Final residual = 2.5619879e-14, No Iterations 2
smoothSolver:  Solving for e, Initial residual = 0.13492783, Final residual = 2.9665421e-05, No Iterations 1000
smoothSolver:  Solving for p, Initial residual = 0.14240128, Final residual = 1.8894298e-08, No Iterations 1
diagonal:  Solving for rho, Initial residual = 0, Final residual = 0, No Iterations 0
time step continuity errors : sum local = 1.2641666e-16, global = -1.0410032e-17, cumulative = -2.275366e-17
smoothSolver:  Solving for p, Initial residual = 3.9699587e-08, Final residual = 3.9699587e-08, No Iterations 0
diagonal:  Solving for rho, Initial residual = 0, Final residual = 0, No Iterations 0
time step continuity errors : sum local = 3.8843861e-16, global = -1.0407815e-17, cumulative = -3.3161475e-17
DILUPBiCGStab:  Solving for omega, Initial residual = 8.9476353e-07, Final residual = 1.7011621e-21, No Iterations 1
smoothSolver:  Solving for k, Initial residual = 0.77230961, Final residual = 2.158059e-09, No Iterations 1
ExecutionTime = 0.76 s  ClockTime = 1 s

forceCoeffs forces write:
    Coefficient	Total	Pressure	Viscous	Internal
    Cd:	0.044791766	0.00028609078	0.044505675	0
    Cd(f):	0.022415092	0.00014217315	0.022272918	0
    Cd(r):	0.022376674	0.00014391762	0.022232757	0
    Cl:	-3.8417179e-05	1.7444715e-06	-4.0161651e-05	0
    Cl(f):	-0.00026020346	8.7223577e-07	-0.0002610757	0
    Cl(r):	0.00022178628	8.7223577e-07	0.00022091404	0
    CmPitch:	-0.00024099487	-1.9606704e-16	-0.00024099487	0
    CmRoll:	1.9208589e-05	-8.7223578e-07	2.0080825e-05	0
    CmYaw:	0.022395883	0.00014304539	0.022252838	0
    Cs:	-1.369083e-18	-1.2470233e-18	-1.2205966e-19	0
    Cs(f):	0.022395883	0.00014304539	0.022252838	0
    Cs(r):	-0.022395883	-0.00014304539	-0.022252838	0

    writing force and moment coefficient files.

Courant Number mean: 1.6957204e-07 max: 1.5145385e-06
deltaT = 8.64e-08
Time = 2.184e-07

PIMPLE: iteration 1
diagonal:  Solving for rho, Initial residual = 0, Final residual = 0, No Iterations 0
smoothSolver:  Solving for Ux, Initial residual = 0.023222718, Final residual = 3.2806859e-07, No Iterations 2
smoothSolver:  Solving for Uy, Initial residual = 0.15004194, Final residual = 2.2992541e-14, No Iterations 2
smoothSolver:  Solving for e, Initial residual = 0.080896821, Final residual = 1.4745569e-05, No Iterations 1000
smoothSolver:  Solving for p, Initial residual = 0.083059957, Final residual = 9.5242466e-09, No Iterations 1
diagonal:  Solving for rho, Initial residual = 0, Final residual = 0, No Iterations 0
time step continuity errors : sum local = 1.3022508e-16, global = -4.1204258e-17, cumulative = -7.4365733e-17
smoothSolver:  Solving for p, Initial residual = 3.1317474e-08, Final residual = 3.1317474e-08, No Iterations 0
diagonal:  Solving for rho, Initial residual = 0, Final residual = 0, No Iterations 0
time step continuity errors : sum local = 5.0764032e-16, global = -4.1200016e-17, cumulative = -1.1556575e-16
DILUPBiCGStab:  Solving for omega, Initial residual = 1.0737158e-06, Final residual = 2.8669873e-21, No Iterations 1
smoothSolver:  Solving for k, Initial residual = 0.64901063, Final residual = 1.4989635e-09, No Iterations 1
ExecutionTime = 0.96 s  ClockTime = 1 s

forceCoeffs forces write:
    Coefficient	Total	Pressure	Viscous	Internal
    Cd:	0.04497902	0.00047334927	0.044505671	0
    Cd(f):	0.022508149	0.00023523175	0.022272917	0
    Cd(r):	0.022470872	0.00023811752	0.022232754	0
    Cl:	-3.7276813e-05	2.885766e-06	-4.0162579e-05	0
    Cl(f):	-0.00025963333	1.442883e-06	-0.00026107622	0
    Cl(r):	0.00022235652	1.442883e-06	0.00022091364	0
    CmPitch:	-0.00024099493	-3.5501769e-16	-0.00024099493	0
    CmRoll:	1.8638406e-05	-1.442883e-06	2.0081289e-05	0
    CmYaw:	0.02248951	0.00023667464	0.022252836	0
    Cs:	-1.3690847e-18	-1.247025e-18	-1.2205966e-19	0
    Cs(f):	0.02248951	0.00023667464	0.022252836	0
    Cs(r):	-0.02248951	-0.00023667464	-0.022252836	0

    writing force and moment coefficient files.

Courant Number mean: 2.0348645e-07 max: 1.817446e-06
deltaT = 1.0368e-07
Time = 3.2208e-07

PIMPLE: iteration 1
diagonal:  Solving for rho, Initial residual = 0, Final residual = 0, No Iterations 0
smoothSolver:  Solving for Ux, Initial residual = 0.016959785, Final residual = 2.01523e-07, No Iterations 2
smoothSolver:  Solving for Uy, Initial residual = 0.11567884, Final residual = 2.5523684e-14, No Iterations 2
smoothSolver:  Solving for e, Initial residual = 0.060668221, Final residual = 9.3122217e-06, No Iterations 2
smoothSolver:  Solving for p, Initial residual = 0.061648339, Final residual = 5.841873e-09, No Iterations 1
diagonal:  Solving for rho, Initial residual = 0, Final residual = 0, No Iterations 0
time step continuity errors : sum local = 1.429173e-16, global = 6.8723653e-17, cumulative = -4.6842097e-17
smoothSolver:  Solving for p, Initial residual = 2.9937675e-08, Final residual = 2.9937675e-08, No Iterations 0
diagonal:  Solving for rho, Initial residual = 0, Final residual = 0, No Iterations 0
time step continuity errors : sum local = 6.8648981e-16, global = 6.8712428e-17, cumulative = 2.1870331e-17
DILUPBiCGStab:  Solving for omega, Initial residual = 1.2884579e-06, Final residual = 4.8492813e-21, No Iterations 1
smoothSolver:  Solving for k, Initial residual = 0.57267496, Final residual = 1.1109498e-09, No Iterations 1
ExecutionTime = 0.99 s  ClockTime = 1 s

forceCoeffs forces write:
    Coefficient	Total	Pressure	Viscous	Internal
    Cd:	0.045203725	0.00069805936	0.044505666	0
    Cd(f):	0.022619817	0.00034690203	0.022272915	0
    Cd(r):	0.022583908	0.00035115733	0.022232751	0
    Cl:	-3.5908388e-05	4.2553044e-06	-4.0163692e-05	0
    Cl(f):	-0.00025894919	2.1276522e-06	-0.00026107684	0
    Cl(r):	0.0002230408	2.1276522e-06	0.00022091315	0
    CmPitch:	-0.00024099499	1.7270575e-16	-0.00024099499	0
    CmRoll:	1.7954194e-05	-2.1276522e-06	2.0081846e-05	0
    CmYaw:	0.022601863	0.00034902968	0.022252833	0
    Cs:	-1.3690867e-18	-1.247027e-18	-1.2205965e-19	0
    Cs(f):	0.022601863	0.00034902968	0.022252833	0
    Cs(r):	-0.022601863	-0.00034902968	-0.022252833	0

    writing force and moment coefficient files.

Courant Number mean: 2.4418374e-07 max: 2.1809351e-06
deltaT = 1.24416e-07
Time = 4.46496e-07

PIMPLE: iteration 1
diagonal:  Solving for rho, Initial residual = 0, Final residual = 0, No Iterations 0
smoothSolver:  Solving for Ux, Initial residual = 0.013862472, Final residual = 1.3687354e-07, No Iterations 2
smoothSolver:  Solving for Uy, Initial residual = 0.098375, Final residual = 3.1273863e-14, No Iterations 2
smoothSolver:  Solving for e, Initial residual = 0.050199071, Final residual = 6.3867653e-06, No Iterations 2
smoothSolver:  Solving for p, Initial residual = 0.050747067, Final residual = 4.0799381e-09, No Iterations 1
diagonal:  Solving for rho, Initial residual = 0, Final residual = 0, No Iterations 0
time step continuity errors : sum local = 1.4604784e-16, global = 7.2187328e-17, cumulative = 9.405766e-17
smoothSolver:  Solving for p, Initial residual = 3.0505993e-08, Final residual = 3.0505993e-08, No Iterations 0
diagonal:  Solving for rho, Initial residual = 0, Final residual = 0, No Iterations 0
time step continuity errors : sum local = 9.2885329e-16, global = 7.2184373e-17, cumulative = 1.6624203e-16
DILUPBiCGStab:  Solving for omega, Initial residual = 1.5461477e-06, Final residual = 8.2748634e-21, No Iterations 1
smoothSolver:  Solving for k, Initial residual = 0.5215272, Final residual = 8.4915931e-10, No Iterations 1
ExecutionTime = 1.01 s  ClockTime = 1 s

forceCoeffs forces write:
    Coefficient	Total	Pressure	Viscous	Internal
    Cd:	0.045473371	0.0009677113	0.04450566	0
    Cd(f):	0.022753819	0.00048090629	0.022272912	0
    Cd(r):	0.022719552	0.00048680501	0.022232747	0
    Cl:	-3.4266303e-05	5.8987251e-06	-4.0165028e-05	0
    Cl(f):	-0.00025812823	2.9493625e-06	-0.00026107759	0
    Cl(r):	0.00022386192	2.9493625e-06	0.00022091256	0
    CmPitch:	-0.00024099508	9.8713348e-17	-0.00024099508	0
    CmRoll:	1.7133152e-05	-2.9493625e-06	2.0082514e-05	0
    CmYaw:	0.022736686	0.00048385565	0.02225283	0
    Cs:	-1.3690891e-18	-1.2470295e-18	-1.2205965e-19	0
    Cs(f):	0.022736686	0.00048385565	0.02225283	0
    Cs(r):	-0.022736686	-0.00048385565	-0.02225283	0

    writing force and moment coefficient files.

Courant Number mean: 2.9302049e-07 max: 2.6171218e-06
deltaT = 1.492992e-07
Time = 5.957952e-07

PIMPLE: iteration 1
diagonal:  Solving for rho, Initial residual = 0, Final residual = 0, No Iterations 0
smoothSolver:  Solving for Ux, Initial residual = 0.012044368, Final residual = 9.8294112e-08, No Iterations 2
smoothSolver:  Solving for Uy, Initial residual = 0.088537695, Final residual = 4.0522527e-14, No Iterations 2
smoothSolver:  Solving for e, Initial residual = 0.043885689, Final residual = 4.704696e-06, No Iterations 2
smoothSolver:  Solving for p, Initial residual = 0.044229332, Final residual = 2.9479958e-09, No Iterations 1
diagonal:  Solving for rho, Initial residual = 0, Final residual = 0, No Iterations 0
time step continuity errors : sum local = 1.3263423e-16, global = -2.7416007e-17, cumulative = 1.3882603e-16
smoothSolver:  Solving for p, Initial residual = 3.1890018e-08, Final residual = 3.1890018e-08, No Iterations 0
diagonal:  Solving for rho, Initial residual = 0, Final residual = 0, No Iterations 0
time step continuity errors : sum local = 1.2600588e-15, global = -2.7417276e-17, cumulative = 1.1140875e-16
DILUPBiCGStab:  Solving for omega, Initial residual = 1.8553746e-06, Final residual = 1.4556921e-20, No Iterations 1
smoothSolver:  Solving for k, Initial residual = 0.4853869, Final residual = 6.5901287e-10, No Iterations 1
ExecutionTime = 1.04 s  ClockTime = 2 s

forceCoeffs forces write:
    Coefficient	Total	Pressure	Viscous	Internal
    Cd:	0.045796946	0.0012912934	0.044505652	0
    Cd(f):	0.022914621	0.0006417113	0.02227291	0
    Cd(r):	0.022882325	0.00064958209	0.022232743	0
    Cl:	-3.2295837e-05	7.8707947e-06	-4.0166632e-05	0
    Cl(f):	-0.00025714309	3.9353973e-06	-0.00026107849	0
    Cl(r):	0.00022484726	3.9353974e-06	0.00022091186	0
    CmPitch:	-0.00024099517	-6.757759e-16	-0.00024099517	0
    CmRoll:	1.6147919e-05	-3.9353973e-06	2.0083316e-05	0
    CmYaw:	0.022898473	0.0006456467	0.022252826	0
    Cs:	-1.369092e-18	-1.2470324e-18	-1.2205964e-19	0
    Cs(f):	0.022898473	0.0006456467	0.022252826	0
    Cs(r):	-0.022898473	-0.0006456467	-0.022252826	0

    writing force and moment coefficient files.

Courant Number mean: 3.5162459e-07 max: 3.1405457e-06
deltaT = 1.7915904e-07
Time = 7.7495424e-07

PIMPLE: iteration 1
diagonal:  Solving for rho, Initial residual = 0, Final residual = 0, No Iterations 0
smoothSolver:  Solving for Ux, Initial residual = 0.010870004, Final residual = 7.4697189e-08, No Iterations 2
smoothSolver:  Solving for Uy, Initial residual = 0.082710797, Final residual = 5.4513267e-14, No Iterations 2
smoothSolver:  Solving for e, Initial residual = 0.039727995, Final residual = 3.5295434e-06, No Iterations 2
smoothSolver:  Solving for p, Initial residual = 0.039953143, Final residual = 2.2096673e-09, No Iterations 1
diagonal:  Solving for rho, Initial residual = 0, Final residual = 0, No Iterations 0
time step continuity errors : sum local = 1.3760604e-16, global = 3.4688867e-17, cumulative = 1.4609762e-16
smoothSolver:  Solving for p, Initial residual = 3.465177e-08, Final residual = 3.465177e-08, No Iterations 0
diagonal:  Solving for rho, Initial residual = 0, Final residual = 0, No Iterations 0
time step continuity errors : sum local = 1.7612444e-15, global = 3.4699509e-17, cumulative = 1.8079713e-16
DILUPBiCGStab:  Solving for omega, Initial residual = 2.2264457e-06, Final residual = 2.4888952e-20, No Iterations 1
smoothSolver:  Solving for k, Initial residual = 0.45887596, Final residual = 5.1240934e-10, No Iterations 1
ExecutionTime = 1.06 s  ClockTime = 2 s

forceCoeffs forces write:
    Coefficient	Total	Pressure	Viscous	Internal
    Cd:	0.046185235	0.0016795916	0.044505644	0
    Cd(f):	0.023107583	0.00083467718	0.022272906	0
    Cd(r):	0.023077652	0.0008449144	0.022232738	0
    Cl:	-2.9931329e-05	1.0237227e-05	-4.0168556e-05	0
    Cl(f):	-0.00025596096	5.1186135e-06	-0.00026107957	0
    Cl(r):	0.00022602963	5.1186135e-06	0.00022091101	0
    CmPitch:	-0.00024099529	-4.714484e-16	-0.00024099529	0
    CmRoll:	1.4965665e-05	-5.1186135e-06	2.0084278e-05	0
    CmYaw:	0.023092618	0.00083979579	0.022252822	0
    Cs:	-1.3690955e-18	-1.2470359e-18	-1.2205963e-19	0
    Cs(f):	0.023092618	0.00083979579	0.022252822	0
    Cs(r):	-0.023092618	-0.00083979579	-0.022252822	0

    writing force and moment coefficient files.

Courant Number mean: 4.219495e-07 max: 3.7686543e-06
deltaT = 2.1499084e-07
Time = 9.8994508e-07

PIMPLE: iteration 1
diagonal:  Solving for rho, Initial residual = 0, Final residual = 0, No Iterations 0
smoothSolver:  Solving for Ux, Initial residual = 0.010065592, Final residual = 5.6000402e-08, No Iterations 2
smoothSolver:  Solving for Uy, Initial residual = 0.079346711, Final residual = 7.5159468e-14, No Iterations 2
smoothSolver:  Solving for e, Initial residual = 0.036818372, Final residual = 2.6901034e-06, No Iterations 2
smoothSolver:  Solving for p, Initial residual = 0.036974013, Final residual = 1.6704316e-09, No Iterations 1
diagonal:  Solving for rho, Initial residual = 0, Final residual = 0, No Iterations 0
time step continuity errors : sum local = 1.3214715e-16, global = 2.3552928e-17, cumulative = 2.0435005e-16
smoothSolver:  Solving for p, Initial residual = 3.8456094e-08, Final residual = 3.8456094e-08, No Iterations 0
diagonal:  Solving for rho, Initial residual = 0, Final residual = 0, No Iterations 0
time step continuity errors : sum local = 2.4702464e-15, global = 2.3550107e-17, cumulative = 2.2790016e-16
DILUPBiCGStab:  Solving for omega, Initial residual = 2.6717294e-06, Final residual = 4.2432001e-20, No Iterations 1
smoothSolver:  Solving for k, Initial residual = 0.43890099, Final residual = 4.0218151e-10, No Iterations 1
ExecutionTime = 1.08 s  ClockTime = 2 s

forceCoeffs forces write:
    Coefficient	Total	Pressure	Viscous	Internal
    Cd:	0.046651182	0.0021455489	0.044505633	0
    Cd(f):	0.023339138	0.001066236	0.022272902	0
    Cd(r):	0.023312044	0.0010793129	0.022232731	0
    Cl:	-2.7093994e-05	1.3076872e-05	-4.0170866e-05	0
    Cl(f):	-0.00025454243	6.5384361e-06	-0.00026108087	0
    Cl(r):	0.00022744844	6.5384361e-06	0.00022091	0
    CmPitch:	-0.00024099543	-3.2711004e-18	-0.00024099543	0
    CmRoll:	1.3546997e-05	-6.5384361e-06	2.0085433e-05	0
    CmYaw:	0.023325591	0.0010727745	0.022252817	0
    Cs:	-1.3690997e-18	-1.2470401e-18	-1.2205962e-19	0
    Cs(f):	0.023325591	0.0010727745	0.022252817	0
    Cs(r):	-0.023325591	-0.0010727745	-0.022252817	0

    writing force and moment coefficient files.

Courant Number mean: 5.063394e-07 max: 4.5223844e-06
deltaT = 2.5798901e-07
Time = 1.2479341e-06

PIMPLE: iteration 1
diagonal:  Solving for rho, Initial residual = 0, Final residual = 0, No Iterations 0
smoothSolver:  Solving for Ux, Initial residual = 0.0094939055, Final residual = 4.4211306e-08, No Iterations 2
smoothSolver:  Solving for Uy, Initial residual = 0.0776516, Final residual = 1.0568819e-13, No Iterations 2
smoothSolver:  Solving for e, Initial residual = 0.034700127, Final residual = 2.1034361e-06, No Iterations 2
smoothSolver:  Solving for p, Initial residual = 0.034811055, Final residual = 1.3027513e-09, No Iterations 1
diagonal:  Solving for rho, Initial residual = 0, Final residual = 0, No Iterations 0
time step continuity errors : sum local = 1.4540013e-16, global = -6.9039548e-17, cumulative = 1.5886061e-16
smoothSolver:  Solving for p, Initial residual = 4.3533079e-08, Final residual = 4.3533079e-08, No Iterations 0
diagonal:  Solving for rho, Initial residual = 0, Final residual = 0, No Iterations 0
time step continuity errors : sum local = 3.5123734e-15, global = -6.9053897e-17, cumulative = 8.9806717e-17
DILUPBiCGStab:  Solving for omega, Initial residual = 3.2060673e-06, Final residual = 7.4691386e-20, No Iterations 1
smoothSolver:  Solving for k, Initial residual = 0.423534, Final residual = 3.3124448e-10, No Iterations 1
ExecutionTime = 1.11 s  ClockTime = 2 s

forceCoeffs forces write:
    Coefficient	Total	Pressure	Viscous	Internal
    Cd:	0.047210317	0.0027046971	0.04450562	0
    Cd(f):	0.023617003	0.0013441064	0.022272897	0
    Cd(r):	0.023593314	0.0013605907	0.022232723	0
    Cl:	-2.3689301e-05	1.6484336e-05	-4.0173637e-05	0
    Cl(f):	-0.00025284026	8.2421679e-06	-0.00026108242	0
    Cl(r):	0.00022915095	8.2421679e-06	0.00022090879	0
    CmPitch:	-0.0002409956	-7.8791703e-16	-0.0002409956	0
    CmRoll:	1.1844651e-05	-8.2421679e-06	2.0086819e-05	0
    CmYaw:	0.023605159	0.0013523485	0.02225281	0
    Cs:	-1.3691048e-18	-1.2470451e-18	-1.2205961e-19	0
    Cs(f):	0.023605159	0.0013523485	0.02225281	0
    Cs(r):	-0.023605159	-0.0013523485	-0.02225281	0

    writing force and moment coefficient files.

Courant Number mean: 6.0760728e-07 max: 5.42686e-06
deltaT = 3.0958682e-07
Time = 1.5575209e-06

PIMPLE: iteration 1
diagonal:  Solving for rho, Initial residual = 0, Final residual = 0, No Iterations 0
smoothSolver:  Solving for Ux, Initial residual = 0.00907879, Final residual = 3.5209526e-08, No Iterations 2
smoothSolver:  Solving for Uy, Initial residual = 0.077169256, Final residual = 1.5101715e-13, No Iterations 2
smoothSolver:  Solving for e, Initial residual = 0.033111507, Final residual = 1.6871898e-06, No Iterations 2
smoothSolver:  Solving for p, Initial residual = 0.033192905, Final residual = 1.032386e-09, No Iterations 1
diagonal:  Solving for rho, Initial residual = 0, Final residual = 0, No Iterations 0
time step continuity errors : sum local = 1.2907015e-16, global = 1.2856547e-17, cumulative = 1.0266326e-16
smoothSolver:  Solving for p, Initial residual = 4.9914368e-08, Final residual = 4.9914368e-08, No Iterations 0
diagonal:  Solving for rho, Initial residual = 0, Final residual = 0, No Iterations 0
time step continuity errors : sum local = 4.977673e-15, global = 1.2853242e-17, cumulative = 1.1551651e-16
DILUPBiCGStab:  Solving for omega, Initial residual = 3.8472695e-06, Final residual = 1.274443e-19, No Iterations 1
smoothSolver:  Solving for k, Initial residual = 0.41152503, Final residual = 2.7322296e-10, No Iterations 1
ExecutionTime = 1.13 s  ClockTime = 2 s

forceCoeffs forces write:
    Coefficient	Total	Pressure	Viscous	Internal
    Cd:	0.047881279	0.0033756739	0.044505605	0
    Cd(f):	0.023950441	0.0016775504	0.022272891	0
    Cd(r):	0.023930838	0.0016981235	0.022232714	0
    Cl:	-1.9603818e-05	2.0573145e-05	-4.0176963e-05	0
    Cl(f):	-0.00025079772	1.0286572e-05	-0.00026108429	0
    Cl(r):	0.0002311939	1.0286572e-05	0.00022090733	0
    CmPitch:	-0.00024099581	-8.2080982e-16	-0.00024099581	0
    CmRoll:	9.8019088e-06	-1.0286572e-05	2.0088481e-05	0
    CmYaw:	0.023940639	0.0016878369	0.022252803	0
    Cs:	-1.3691108e-18	-1.2470512e-18	-1.2205959e-19	0
    Cs(f):	0.023940639	0.0016878369	0.022252803	0
    Cs(r):	-0.023940639	-0.0016878369	-0.022252803	0

    writing force and moment coefficient files.

Courant Number mean: 7.2912874e-07 max: 6.5122304e-06
deltaT = 3.7150418e-07
Time = 1.9290251e-06

PIMPLE: iteration 1
diagonal:  Solving for rho, Initial residual = 0, Final residual = 0, No Iterations 0
smoothSolver:  Solving for Ux, Initial residual = 0.0087747553, Final residual = 2.7587458e-08, No Iterations 2
smoothSolver:  Solving for Uy, Initial residual = 0.077612076, Final residual = 2.1829667e-13, No Iterations 2
smoothSolver:  Solving for e, Initial residual = 0.031895592, Final residual = 1.3578459e-06, No Iterations 2
smoothSolver:  Solving for p, Initial residual = 0.031954949, Final residual = 8.3358193e-10, No Iterations 1
diagonal:  Solving for rho, Initial residual = 0, Final residual = 0, No Iterations 0
time step continuity errors : sum local = 1.3374401e-16, global = -8.0565454e-18, cumulative = 1.0745996e-16
smoothSolver:  Solving for p, Initial residual = 5.7810866e-08, Final residual = 5.7810866e-08, No Iterations 0
diagonal:  Solving for rho, Initial residual = 0, Final residual = 0, No Iterations 0
time step continuity errors : sum local = 7.1158801e-15, global = -8.0557243e-18, cumulative = 9.9404236e-17
DILUPBiCGStab:  Solving for omega, Initial residual = 4.616707e-06, Final residual = 2.1903263e-19, No Iterations 1
smoothSolver:  Solving for k, Initial residual = 0.40202619, Final residual = 2.1764699e-10, No Iterations 1
ExecutionTime = 1.16 s  ClockTime = 2 s

forceCoeffs forces write:
    Coefficient	Total	Pressure	Viscous	Internal
    Cd:	0.048686431	0.0041808446	0.044505587	0
    Cd(f):	0.024350566	0.0020776826	0.022272884	0
    Cd(r):	0.024335865	0.0021031621	0.022232703	0
    Cl:	-1.470146e-05	2.5479493e-05	-4.0180954e-05	0
    Cl(f):	-0.00024834679	1.2739747e-05	-0.00026108653	0
    Cl(r):	0.00023364533	1.2739747e-05	0.00022090558	0
    CmPitch:	-0.00024099606	-5.850139e-16	-0.00024099606	0
    CmRoll:	7.3507301e-06	-1.2739747e-05	2.0090477e-05	0
    CmYaw:	0.024343216	0.0020904223	0.022252793	0
    Cs:	-1.369118e-18	-1.2470585e-18	-1.2205957e-19	0
    Cs(f):	0.024343216	0.0020904223	0.022252793	0
    Cs(r):	-0.024343216	-0.0020904223	-0.022252793	0

    writing force and moment coefficient files.

Courant Number mean: 8.749545e-07 max: 7.8146742e-06
deltaT = 4.4580502e-07
Time = 2.3748301e-06

PIMPLE: iteration 1
diagonal:  Solving for rho, Initial residual = 0, Final residual = 0, No Iterations 0
smoothSolver:  Solving for Ux, Initial residual = 0.0085532542, Final residual = 2.1925866e-08, No Iterations 2
smoothSolver:  Solving for Uy, Initial residual = 0.078795908, Final residual = 3.1832408e-13, No Iterations 2
smoothSolver:  Solving for e, Initial residual = 0.030949091, Final residual = 1.0978776e-06, No Iterations 2
smoothSolver:  Solving for p, Initial residual = 0.030991845, Final residual = 6.6377576e-10, No Iterations 1
diagonal:  Solving for rho, Initial residual = 0, Final residual = 0, No Iterations 0
time step continuity errors : sum local = 1.3089793e-16, global = 2.654423e-17, cumulative = 1.2594847e-16
smoothSolver:  Solving for p, Initial residual = 6.7388937e-08, Final residual = 6.7388937e-08, No Iterations 0
diagonal:  Solving for rho, Initial residual = 0, Final residual = 0, No Iterations 0
time step continuity errors : sum local = 1.0185248e-14, global = 2.6540993e-17, cumulative = 1.5248946e-16
DILUPBiCGStab:  Solving for omega, Initial residual = 5.5400248e-06, Final residual = 3.8253712e-19, No Iterations 1
smoothSolver:  Solving for k, Initial residual = 0.39443955, Final residual = 1.7724e-10, No Iterations 1
ExecutionTime = 1.18 s  ClockTime = 2 s

forceCoeffs forces write:
    Coefficient	Total	Pressure	Viscous	Internal
    Cd:	0.049652612	0.0051470475	0.044505565	0
    Cd(f):	0.024830716	0.0025578403	0.022272875	0
    Cd(r):	0.024821897	0.0025892071	0.02223269	0
    Cl:	-8.8189486e-06	3.1366794e-05	-4.0185743e-05	0
    Cl(f):	-0.00024540583	1.5683397e-05	-0.00026108923	0
    Cl(r):	0.00023658688	1.5683397e-05	0.00022090348	0
    CmPitch:	-0.00024099635	-1.0069092e-15	-0.00024099635	0
    CmRoll:	4.4094743e-06	-1.5683397e-05	2.0092871e-05	0
    CmYaw:	0.024826306	0.0025735237	0.022252782	0
    Cs:	-1.3691267e-18	-1.2470672e-18	-1.2205955e-19	0
    Cs(f):	0.024826306	0.0025735237	0.022252782	0
    Cs(r):	-0.024826306	-0.0025735237	-0.022252782	0

    writing force and moment coefficient files.

Courant Number mean: 1.0499454e-06 max: 9.3776054e-06
deltaT = 5.3496601e-07
Time = 2.9097961e-06

PIMPLE: iteration 1
diagonal:  Solving for rho, Initial residual = 0, Final residual = 0, No Iterations 0
smoothSolver:  Solving for Ux, Initial residual = 0.0083956108, Final residual = 1.7745055e-08, No Iterations 2
smoothSolver:  Solving for Uy, Initial residual = 0.080584784, Final residual = 4.6656194e-13, No Iterations 2
smoothSolver:  Solving for e, Initial residual = 0.030201831, Final residual = 9.1189458e-07, No Iterations 2
smoothSolver:  Solving for p, Initial residual = 0.030232555, Final residual = 5.6175133e-10, No Iterations 1
diagonal:  Solving for rho, Initial residual = 0, Final residual = 0, No Iterations 0
time step continuity errors : sum local = 1.4001921e-16, global = -5.748619e-17, cumulative = 9.500327e-17
smoothSolver:  Solving for p, Initial residual = 7.9045432e-08, Final residual = 7.9045432e-08, No Iterations 0
diagonal:  Solving for rho, Initial residual = 0, Final residual = 0, No Iterations 0
time step continuity errors : sum local = 1.4618431e-14, global = -5.7471945e-17, cumulative = 3.7531325e-17
DILUPBiCGStab:  Solving for omega, Initial residual = 6.6479957e-06, Final residual = 6.6600244e-19, No Iterations 1
smoothSolver:  Solving for k, Initial residual = 0.38833216, Final residual = 1.4521493e-10, No Iterations 1
ExecutionTime = 1.2 s  ClockTime = 2 s

forceCoeffs forces write:
    Coefficient	Total	Pressure	Viscous	Internal
    Cd:	0.050812026	0.0063064879	0.044505538	0
    Cd(f):	0.025406893	0.0031340284	0.022272865	0
    Cd(r):	0.025405133	0.0031724595	0.022232673	0
    Cl:	-1.7603921e-06	3.8431098e-05	-4.019149e-05	0
    Cl(f):	-0.00024187691	1.9215549e-05	-0.00026109246	0
    Cl(r):	0.00024011652	1.9215549e-05	0.00022090097	0
    CmPitch:	-0.00024099671	-2.1690042e-15	-0.00024099671	0
    CmRoll:	8.8019606e-07	-1.9215549e-05	2.0095745e-05	0
    CmYaw:	0.025406013	0.003153244	0.022252769	0
    Cs:	-1.3691372e-18	-1.2470777e-18	-1.2205952e-19	0
    Cs(f):	0.025406013	0.003153244	0.022252769	0
    Cs(r):	-0.025406013	-0.003153244	-0.022252769	0

    writing force and moment coefficient files.

Courant Number mean: 1.2599344e-06 max: 1.1253121e-05
deltaT = 6.4195922e-07
Time = 3.5517553e-06

PIMPLE: iteration 1
diagonal:  Solving for rho, Initial residual = 0, Final residual = 0, No Iterations 0
smoothSolver:  Solving for Ux, Initial residual = 0.0082893277, Final residual = 1.4320685e-08, No Iterations 2
smoothSolver:  Solving for Uy, Initial residual = 0.082874493, Final residual = 6.8610655e-13, No Iterations 2
smoothSolver:  Solving for e, Initial residual = 0.029605263, Final residual = 7.2846136e-07, No Iterations 2
smoothSolver:  Solving for p, Initial residual = 0.029627627, Final residual = 4.5359294e-10, No Iterations 1
diagonal:  Solving for rho, Initial residual = 0, Final residual = 0, No Iterations 0
time step continuity errors : sum local = 1.431723e-16, global = -6.3210411e-17, cumulative = -2.5679085e-17
smoothSolver:  Solving for p, Initial residual = 9.3111992e-08, Final residual = 9.3111992e-08, No Iterations 0
diagonal:  Solving for rho, Initial residual = 0, Final residual = 0, No Iterations 0
time step continuity errors : sum local = 2.0992204e-14, global = -6.3223531e-17, cumulative = -8.8902617e-17
DILUPBiCGStab:  Solving for omega, Initial residual = 7.977546e-06, Final residual = 1.1512646e-18, No Iterations 1
smoothSolver:  Solving for k, Initial residual = 0.38338447, Final residual = 1.1997628e-10, No Iterations 1
ExecutionTime = 1.23 s  ClockTime = 2 s

forceCoeffs forces write:
    Coefficient	Total	Pressure	Viscous	Internal
    Cd:	0.052203319	0.0076978123	0.044505507	0
    Cd(f):	0.026098305	0.0038254523	0.022272852	0
    Cd(r):	0.026105014	0.0038723599	0.022232654	0
    Cl:	6.7092156e-06	4.6907603e-05	-4.0198388e-05	0
    Cl(f):	-0.00023764254	2.3453802e-05	-0.00026109634	0
    Cl(r):	0.00024435175	2.3453802e-05	0.00022089795	0
    CmPitch:	-0.00024099715	-1.3710191e-15	-0.00024099715	0
    CmRoll:	-3.3546078e-06	-2.3453802e-05	2.0099194e-05	0
    CmYaw:	0.026101659	0.0038489061	0.022252753	0
    Cs:	-1.3691497e-18	-1.2470902e-18	-1.2205949e-19	0
    Cs(f):	0.026101659	0.0038489061	0.022252753	0
    Cs(r):	-0.026101659	-0.0038489061	-0.022252753	0

    writing force and moment coefficient files.

Courant Number mean: 1.5119213e-06 max: 1.3503738e-05
deltaT = 7.7035106e-07
Time = 4.3221064e-06

PIMPLE: iteration 1
diagonal:  Solving for rho, Initial residual = 0, Final residual = 0, No Iterations 0
smoothSolver:  Solving for Ux, Initial residual = 0.008225965, Final residual = 1.1625161e-08, No Iterations 2
smoothSolver:  Solving for Uy, Initial residual = 0.085567478, Final residual = 1.00353e-12, No Iterations 2
smoothSolver:  Solving for e, Initial residual = 0.029126145, Final residual = 5.9189994e-07, No Iterations 2
smoothSolver:  Solving for p, Initial residual = 0.029141783, Final residual = 3.6520362e-10, No Iterations 1
diagonal:  Solving for rho, Initial residual = 0, Final residual = 0, No Iterations 0
time step continuity errors : sum local = 1.3398167e-16, global = -1.1831544e-17, cumulative = -1.0073416e-16
smoothSolver:  Solving for p, Initial residual = 1.1007383e-07, Final residual = 1.1007383e-07, No Iterations 0
diagonal:  Solving for rho, Initial residual = 0, Final residual = 0, No Iterations 0
time step continuity errors : sum local = 3.015672e-14, global = -1.1832109e-17, cumulative = -1.1256627e-16
DILUPBiCGStab:  Solving for omega, Initial residual = 9.5729848e-06, Final residual = 1.9778471e-18, No Iterations 1
smoothSolver:  Solving for k, Initial residual = 0.37935718, Final residual = 9.9748057e-11, No Iterations 1
ExecutionTime = 1.25 s  ClockTime = 2 s

forceCoeffs forces write:
    Coefficient	Total	Pressure	Viscous	Internal
    Cd:	0.053872864	0.0093673954	0.044505468	0
    Cd(f):	0.026927996	0.0046551585	0.022272838	0
    Cd(r):	0.026944868	0.0047122369	0.022232631	0
    Cl:	1.6871792e-05	5.7078457e-05	-4.0206665e-05	0
    Cl(f):	-0.00023256177	2.8539229e-05	-0.000261101	0
    Cl(r):	0.00024943356	2.8539229e-05	0.00022089433	0
    CmPitch:	-0.00024099767	-1.5390778e-15	-0.00024099767	0
    CmRoll:	-8.4358959e-06	-2.8539229e-05	2.0103333e-05	0
    CmYaw:	0.026936432	0.0046836977	0.022252734	0
    Cs:	-1.3691647e-18	-1.2471053e-18	-1.2205944e-19	0
    Cs(f):	0.026936432	0.0046836977	0.022252734	0
    Cs(r):	-0.026936432	-0.0046836977	-0.022252734	0

    writing force and moment coefficient files.

Courant Number mean: 1.8143056e-06 max: 1.6204476e-05
deltaT = 9.2442129e-07
Time = 5.2465277e-06

PIMPLE: iteration 1
diagonal:  Solving for rho, Initial residual = 0, Final residual = 0, No Iterations 0
smoothSolver:  Solving for Ux, Initial residual = 0.0081997924, Final residual = 9.3966019e-09, No Iterations 2
smoothSolver:  Solving for Uy, Initial residual = 0.088573918, Final residual = 1.4863246e-12, No Iterations 2
smoothSolver:  Solving for e, Initial residual = 0.028738745, Final residual = 4.8918392e-07, No Iterations 2
smoothSolver:  Solving for p, Initial residual = 0.028748981, Final residual = 3.0516269e-10, No Iterations 1
diagonal:  Solving for rho, Initial residual = 0, Final residual = 0, No Iterations 0
time step continuity errors : sum local = 1.3932192e-16, global = 5.8079899e-17, cumulative = -5.448637e-17
smoothSolver:  Solving for p, Initial residual = 1.3046823e-07, Final residual = 1.3046823e-07, No Iterations 0
diagonal:  Solving for rho, Initial residual = 0, Final residual = 0, No Iterations 0
time step continuity errors : sum local = 4.3372141e-14, global = 5.8083388e-17, cumulative = 3.5970176e-18
DILUPBiCGStab:  Solving for omega, Initial residual = 1.1487481e-05, Final residual = 3.431867e-18, No Iterations 1
smoothSolver:  Solving for k, Initial residual = 0.37606419, Final residual = 8.2938846e-11, No Iterations 1
ExecutionTime = 1.28 s  ClockTime = 2 s

forceCoeffs forces write:
    Coefficient	Total	Pressure	Viscous	Internal
    Cd:	0.055876309	0.011370886	0.044505423	0
    Cd(f):	0.027923622	0.0056508021	0.02227282	0
    Cd(r):	0.027952687	0.0057200842	0.022232603	0
    Cl:	2.9065521e-05	6.9282121e-05	-4.02166e-05	0
    Cl(f):	-0.00022646554	3.464106e-05	-0.0002611066	0
    Cl(r):	0.00025553106	3.464106e-05	0.00022089	0
    CmPitch:	-0.0002409983	-1.8070019e-15	-0.0002409983	0
    CmRoll:	-1.4532761e-05	-3.464106e-05	2.01083e-05	0
    CmYaw:	0.027938154	0.0056854432	0.022252711	0
    Cs:	-1.3691828e-18	-1.2471234e-18	-1.220594e-19	0
    Cs(f):	0.027938154	0.0056854432	0.022252711	0
    Cs(r):	-0.027938154	-0.0056854432	-0.022252711	0

    writing force and moment coefficient files.

Courant Number mean: 2.1771668e-06 max: 1.9445356e-05
deltaT = 1.1093056e-06
Time = 6.3558332e-06

PIMPLE: iteration 1
diagonal:  Solving for rho, Initial residual = 0, Final residual = 0, No Iterations 0
smoothSolver:  Solving for Ux, Initial residual = 0.0082069244, Final residual = 7.6310513e-09, No Iterations 2
smoothSolver:  Solving for Uy, Initial residual = 0.091802973, Final residual = 2.2046174e-12, No Iterations 2
smoothSolver:  Solving for e, Initial residual = 0.02842349, Final residual = 4.0106705e-07, No Iterations 2
smoothSolver:  Solving for p, Initial residual = 0.028429686, Final residual = 2.4857758e-10, No Iterations 1
diagonal:  Solving for rho, Initial residual = 0, Final residual = 0, No Iterations 0
time step continuity errors : sum local = 1.3612276e-16, global = 5.162878e-17, cumulative = 5.5225798e-17
smoothSolver:  Solving for p, Initial residual = 1.5500606e-07, Final residual = 1.5500606e-07, No Iterations 0
diagonal:  Solving for rho, Initial residual = 0, Final residual = 0, No Iterations 0
time step continuity errors : sum local = 6.2391561e-14, global = 5.1633807e-17, cumulative = 1.068596e-16
DILUPBiCGStab:  Solving for omega, Initial residual = 1.3784831e-05, Final residual = 5.921757e-18, No Iterations 1
smoothSolver:  Solving for k, Initial residual = 0.37336378, Final residual = 6.8547722e-11, No Iterations 1
ExecutionTime = 1.3 s  ClockTime = 2 s

forceCoeffs forces write:
    Coefficient	Total	Pressure	Viscous	Internal
    Cd:	0.05828043	0.013775063	0.044505367	0
    Cd(f):	0.029118367	0.0068455692	0.022272798	0
    Cd(r):	0.029162063	0.0069294937	0.022232569	0
    Cl:	4.369603e-05	8.3924552e-05	-4.0228522e-05	0
    Cl(f):	-0.00021915105	4.1962276e-05	-0.00026111332	0
    Cl(r):	0.00026284708	4.1962276e-05	0.0002208848	0
    CmPitch:	-0.00024099906	-2.871667e-15	-0.00024099906	0
    CmRoll:	-2.1848015e-05	-4.1962276e-05	2.0114261e-05	0
    CmYaw:	0.029140215	0.0068875314	0.022252684	0
    Cs:	-1.3692044e-18	-1.2471451e-18	-1.2205933e-19	0
    Cs(f):	0.029140215	0.0068875314	0.022252684	0
    Cs(r):	-0.029140215	-0.0068875314	-0.022252684	0

    writing force and moment coefficient files.

Courant Number mean: 2.6126002e-06 max: 2.3334406e-05
deltaT = 1.3311666e-06
Time = 7.6869998e-06

PIMPLE: iteration 1
diagonal:  Solving for rho, Initial residual = 0, Final residual = 0, No Iterations 0
smoothSolver:  Solving for Ux, Initial residual = 0.0082448177, Final residual = 6.2435933e-09, No Iterations 2
smoothSolver:  Solving for Uy, Initial residual = 0.095167823, Final residual = 3.2721825e-12, No Iterations 2
smoothSolver:  Solving for e, Initial residual = 0.028165566, Final residual = 3.3736662e-07, No Iterations 2
smoothSolver:  Solving for p, Initial residual = 0.028169033, Final residual = 2.063763e-10, No Iterations 1
diagonal:  Solving for rho, Initial residual = 0, Final residual = 0, No Iterations 0
time step continuity errors : sum local = 1.3738922e-16, global = 4.9605201e-17, cumulative = 1.5646481e-16
smoothSolver:  Solving for p, Initial residual = 1.8449496e-07, Final residual = 1.8449496e-07, No Iterations 0
diagonal:  Solving for rho, Initial residual = 0, Final residual = 0, No Iterations 0
time step continuity errors : sum local = 8.978539e-14, global = 4.9609852e-17, cumulative = 2.0607466e-16
DILUPBiCGStab:  Solving for omega, Initial residual = 1.6541586e-05, Final residual = 1.0240505e-17, No Iterations 1
smoothSolver:  Solving for k, Initial residual = 0.37114195, Final residual = 5.4877825e-11, No Iterations 1
ExecutionTime = 1.32 s  ClockTime = 2 s

forceCoeffs forces write:
    Coefficient	Total	Pressure	Viscous	Internal
    Cd:	0.061165357	0.016660056	0.044505301	0
    Cd(f):	0.030552054	0.0082792818	0.022272772	0
    Cd(r):	0.030613304	0.0083807744	0.022232529	0
    Cl:	6.1249799e-05	0.00010149263	-4.0242831e-05	0
    Cl(f):	-0.00021037509	5.0746315e-05	-0.0002611214	0
    Cl(r):	0.00027162489	5.0746315e-05	0.00022087857	0
    CmPitch:	-0.00024099999	-3.3567063e-15	-0.00024099999	0
    CmRoll:	-3.06249e-05	-5.0746315e-05	2.0121415e-05	0
    CmYaw:	0.030582679	0.0083300281	0.022252651	0
    Cs:	-1.3692304e-18	-1.2471711e-18	-1.2205926e-19	0
    Cs(f):	0.030582679	0.0083300281	0.022252651	0
    Cs(r):	-0.030582679	-0.0083300281	-0.022252651	0

    writing force and moment coefficient files.

Courant Number mean: 3.13512e-06 max: 2.8001253e-05
deltaT = 1.5974e-06
Time = 9.2843998e-06

PIMPLE: iteration 1
diagonal:  Solving for rho, Initial residual = 0, Final residual = 0, No Iterations 0
smoothSolver:  Solving for Ux, Initial residual = 0.0083117954, Final residual = 4.9863054e-09, No Iterations 2
smoothSolver:  Solving for Uy, Initial residual = 0.098589008, Final residual = 4.8588931e-12, No Iterations 2
smoothSolver:  Solving for e, Initial residual = 0.02795459, Final residual = 2.7218018e-07, No Iterations 2
smoothSolver:  Solving for p, Initial residual = 0.027955529, Final residual = 1.7266596e-10, No Iterations 1
diagonal:  Solving for rho, Initial residual = 0, Final residual = 0, No Iterations 0
time step continuity errors : sum local = 1.3666477e-16, global = 3.5548664e-17, cumulative = 2.4162332e-16
smoothSolver:  Solving for p, Initial residual = 2.1991914e-07, Final residual = 2.1991914e-07, No Iterations 0
diagonal:  Solving for rho, Initial residual = 0, Final residual = 0, No Iterations 0
time step continuity errors : sum local = 1.2923004e-13, global = 3.5559831e-17, cumulative = 2.7718315e-16
DILUPBiCGStab:  Solving for omega, Initial residual = 1.9849601e-05, Final residual = 1.7740912e-17, No Iterations 1
smoothSolver:  Solving for k, Initial residual = 0.36931082, Final residual = 4.5897694e-11, No Iterations 1
ExecutionTime = 1.35 s  ClockTime = 2 s

forceCoeffs forces write:
    Coefficient	Total	Pressure	Viscous	Internal
    Cd:	0.064627243	0.020122022	0.044505221	0
    Cd(f):	0.032272467	0.0099997259	0.022272741	0
    Cd(r):	0.032354777	0.010122296	0.022232481	0
    Cl:	8.2310236e-05	0.00012257024	-4.0260005e-05	0
    Cl(f):	-0.00019984599	6.128512e-05	-0.00026113111	0
    Cl(r):	0.00028215623	6.128512e-05	0.00022087111	0
    CmPitch:	-0.00024100111	-3.8704398e-15	-0.00024100111	0
    CmRoll:	-4.1155118e-05	-6.128512e-05	2.0130002e-05	0
    CmYaw:	0.032313622	0.010061011	0.022252611	0
    Cs:	-1.3692616e-18	-1.2472024e-18	-1.2205917e-19	0
    Cs(f):	0.032313622	0.010061011	0.022252611	0
    Cs(r):	-0.032313622	-0.010061011	-0.022252611	0

    writing force and moment coefficient files.

Courant Number mean: 3.7621442e-06 max: 3.360146e-05
deltaT = 1.9168799e-06
Time = 1.120128e-05

PIMPLE: iteration 1
diagonal:  Solving for rho, Initial residual = 0, Final residual = 0, No Iterations 0
smoothSolver:  Solving for Ux, Initial residual = 0.0084067195, Final residual = 4.012631e-09, No Iterations 2
smoothSolver:  Solving for Uy, Initial residual = 0.10199129, Final residual = 7.2104382e-12, No Iterations 2
smoothSolver:  Solving for e, Initial residual = 0.027780658, Final residual = 2.3144095e-07, No Iterations 2
smoothSolver:  Solving for p, Initial residual = 0.027780155, Final residual = 1.4134564e-10, No Iterations 1
diagonal:  Solving for rho, Initial residual = 0, Final residual = 0, No Iterations 0
time step continuity errors : sum local = 1.4116633e-16, global = 5.4625625e-17, cumulative = 3.3180878e-16
smoothSolver:  Solving for p, Initial residual = 2.6244235e-07, Final residual = 2.6244235e-07, No Iterations 0
diagonal:  Solving for rho, Initial residual = 0, Final residual = 0, No Iterations 0
time step continuity errors : sum local = 1.8603577e-13, global = 5.4636745e-17, cumulative = 3.8644552e-16
DILUPBiCGStab:  Solving for omega, Initial residual = 2.3819085e-05, Final residual = 3.0645233e-17, No Iterations 1
smoothSolver:  Solving for k, Initial residual = 0.36779819, Final residual = 3.9269508e-11, No Iterations 1
ExecutionTime = 1.37 s  ClockTime = 2 s

forceCoeffs forces write:
    Coefficient	Total	Pressure	Viscous	Internal
    Cd:	0.068781468	0.024276343	0.044505125	0
    Cd(f):	0.034336946	0.012064243	0.022272703	0
    Cd(r):	0.034444522	0.0122121	0.022232422	0
    Cl:	0.00010757687	0.00014785749	-4.0280617e-05	0
    Cl(f):	-0.00018721404	7.3928745e-05	-0.00026114279	0
    Cl(r):	0.00029479091	7.3928745e-05	0.00022086217	0
    CmPitch:	-0.00024100248	-5.0886373e-15	-0.00024100248	0
    CmRoll:	-5.3788436e-05	-7.3928745e-05	2.0140309e-05	0
    CmYaw:	0.034390734	0.012138171	0.022252563	0
    Cs:	-1.3692989e-18	-1.2472399e-18	-1.2205906e-19	0
    Cs(f):	0.034390734	0.012138171	0.022252563	0
    Cs(r):	-0.034390734	-0.012138171	-0.022252563	0

    writing force and moment coefficient files.

Courant Number mean: 4.5145729e-06 max: 4.0321685e-05
deltaT = 2.3002557e-06
Time = 1.3501535e-05

PIMPLE: iteration 1
diagonal:  Solving for rho, Initial residual = 0, Final residual = 0, No Iterations 0
smoothSolver:  Solving for Ux, Initial residual = 0.0085287066, Final residual = 3.2549172e-09, No Iterations 2
smoothSolver:  Solving for Uy, Initial residual = 0.10530124, Final residual = 1.0483206e-11, No Iterations 2
smoothSolver:  Solving for e, Initial residual = 0.027637039, Final residual = 1.9232141e-07, No Iterations 2
smoothSolver:  Solving for p, Initial residual = 0.027635788, Final residual = 1.1729479e-10, No Iterations 1
diagonal:  Solving for rho, Initial residual = 0, Final residual = 0, No Iterations 0
time step continuity errors : sum local = 1.3937558e-16, global = -5.4892871e-17, cumulative = 3.3155265e-16
smoothSolver:  Solving for p, Initial residual = 3.1350093e-07, Final residual = 3.1350093e-07, No Iterations 0
diagonal:  Solving for rho, Initial residual = 0, Final residual = 0, No Iterations 0
time step continuity errors : sum local = 2.6782782e-13, global = -5.4887071e-17, cumulative = 2.7666558e-16
DILUPBiCGStab:  Solving for omega, Initial residual = 2.8582271e-05, Final residual = 5.3050948e-17, No Iterations 1
smoothSolver:  Solving for k, Initial residual = 0.36654638, Final residual = 3.2372812e-11, No Iterations 1
ExecutionTime = 1.39 s  ClockTime = 2 s

forceCoeffs forces write:
    Coefficient	Total	Pressure	Viscous	Internal
    Cd:	0.073766482	0.029261472	0.044505009	0
    Cd(f):	0.036814297	0.014541639	0.022272657	0
    Cd(r):	0.036952185	0.014719833	0.022232352	0
    Cl:	0.00013788835	0.00017819371	-4.0305358e-05	0
    Cl(f):	-0.00017205997	8.9096854e-05	-0.00026115683	0
    Cl(r):	0.00030994832	8.9096854e-05	0.00022085147	0
    CmPitch:	-0.00024100415	-5.3771065e-15	-0.00024100415	0
    CmRoll:	-6.8944174e-05	-8.9096854e-05	2.0152679e-05	0
    CmYaw:	0.036883241	0.014630736	0.022252505	0
    Cs:	-1.3693438e-18	-1.2472849e-18	-1.2205892e-19	0
    Cs(f):	0.036883241	0.014630736	0.022252505	0
    Cs(r):	-0.036883241	-0.014630736	-0.022252505	0

    writing force and moment coefficient files.

Courant Number mean: 5.4174868e-06 max: 4.8385922e-05
deltaT = 2.7603067e-06
Time = 1.6261842e-05

PIMPLE: iteration 1
diagonal:  Solving for rho, Initial residual = 0, Final residual = 0, No Iterations 0
smoothSolver:  Solving for Ux, Initial residual = 0.0086768817, Final residual = 2.5938541e-09, No Iterations 2
smoothSolver:  Solving for Uy, Initial residual = 0.10846026, Final residual = 1.5416187e-11, No Iterations 2
smoothSolver:  Solving for e, Initial residual = 0.027518249, Final residual = 1.5829272e-07, No Iterations 2
smoothSolver:  Solving for p, Initial residual = 0.027516756, Final residual = 9.7727844e-11, No Iterations 1
diagonal:  Solving for rho, Initial residual = 0, Final residual = 0, No Iterations 0
time step continuity errors : sum local = 1.3357237e-16, global = -1.1501589e-17, cumulative = 2.6516399e-16
smoothSolver:  Solving for p, Initial residual = 3.7478823e-07, Final residual = 3.7478823e-07, No Iterations 0
diagonal:  Solving for rho, Initial residual = 0, Final residual = 0, No Iterations 0
time step continuity errors : sum local = 3.856053e-13, global = -1.1488306e-17, cumulative = 2.5367568e-16
DILUPBiCGStab:  Solving for omega, Initial residual = 3.4297821e-05, Final residual = 9.2057009e-17, No Iterations 1
smoothSolver:  Solving for k, Initial residual = 0.36550931, Final residual = 2.6718406e-11, No Iterations 1
ExecutionTime = 1.42 s  ClockTime = 2 s

forceCoeffs forces write:
    Coefficient	Total	Pressure	Viscous	Internal
    Cd:	0.079748417	0.035243548	0.04450487	0
    Cd(f):	0.039787084	0.017514481	0.022272602	0
    Cd(r):	0.039961334	0.017729066	0.022232267	0
    Cl:	0.0001742499	0.00021458495	-4.0335056e-05	0
    Cl(f):	-0.00015388124	0.00010729248	-0.00026117372	0
    Cl(r):	0.00032813114	0.00010729248	0.00022083866	0
    CmPitch:	-0.00024100619	-6.4982047e-15	-0.00024100619	0
    CmRoll:	-8.7124948e-05	-0.00010729248	2.0167528e-05	0
    CmYaw:	0.039874209	0.017621774	0.022252435	0
    Cs:	-1.3693977e-18	-1.2473389e-18	-1.2205875e-19	0
    Cs(f):	0.039874209	0.017621774	0.022252435	0
    Cs(r):	-0.039874209	-0.017621774	-0.022252435	0

    writing force and moment coefficient files.

Courant Number mean: 6.5009838e-06 max: 5.8062965e-05
deltaT = 3.3123683e-06
Time = 1.957421e-05

PIMPLE: iteration 1
diagonal:  Solving for rho, Initial residual = 0, Final residual = 0, No Iterations 0
smoothSolver:  Solving for Ux, Initial residual = 0.0088501278, Final residual = 2.0526947e-09, No Iterations 2
smoothSolver:  Solving for Uy, Initial residual = 0.11142383, Final residual = 2.2841237e-11, No Iterations 2
smoothSolver:  Solving for e, Initial residual = 0.027419743, Final residual = 1.3073453e-07, No Iterations 2
smoothSolver:  Solving for p, Initial residual = 0.027418489, Final residual = 7.9508424e-11, No Iterations 1
diagonal:  Solving for rho, Initial residual = 0, Final residual = 0, No Iterations 0
time step continuity errors : sum local = 1.3248471e-16, global = -3.4989703e-17, cumulative = 2.1868598e-16
smoothSolver:  Solving for p, Initial residual = 4.4835078e-07, Final residual = 4.4835078e-07, No Iterations 0
diagonal:  Solving for rho, Initial residual = 0, Final residual = 0, No Iterations 0
time step continuity errors : sum local = 5.5521225e-13, global = -3.4989127e-17, cumulative = 1.8369686e-16
DILUPBiCGStab:  Solving for omega, Initial residual = 4.1156088e-05, Final residual = 1.588892e-16, No Iterations 1
smoothSolver:  Solving for k, Initial residual = 0.36464893, Final residual = 2.2667269e-11, No Iterations 1
ExecutionTime = 1.44 s  ClockTime = 2 s

forceCoeffs forces write:
    Coefficient	Total	Pressure	Viscous	Internal
    Cd:	0.086926625	0.042421924	0.044504701	0
    Cd(f):	0.043354379	0.021081843	0.022272536	0
    Cd(r):	0.043572246	0.02134008	0.022232165	0
    Cl:	0.00021786614	0.00025823685	-4.0370707e-05	0
    Cl(f):	-0.00013207563	0.00012911842	-0.00026119405	0
    Cl(r):	0.00034994177	0.00012911842	0.00022082335	0
    CmPitch:	-0.0002410087	-8.3404072e-15	-0.0002410087	0
    CmRoll:	-0.00010893307	-0.00012911842	2.0185353e-05	0
    CmYaw:	0.043463313	0.021210962	0.022252351	0
    Cs:	-1.3694622e-18	-1.2474037e-18	-1.2205854e-19	0
    Cs(f):	0.043463313	0.021210962	0.022252351	0
    Cs(r):	-0.043463313	-0.021210962	-0.022252351	0

    writing force and moment coefficient files.

Courant Number mean: 7.8011815e-06 max: 6.9675365e-05
deltaT = 3.9748425e-06
Time = 2.3549053e-05

PIMPLE: iteration 1
diagonal:  Solving for rho, Initial residual = 0, Final residual = 0, No Iterations 0
smoothSolver:  Solving for Ux, Initial residual = 0.0090468839, Final residual = 1.6140224e-09, No Iterations 2
smoothSolver:  Solving for Uy, Initial residual = 0.11416385, Final residual = 3.299628e-11, No Iterations 2
smoothSolver:  Solving for e, Initial residual = 0.027337744, Final residual = 1.100718e-07, No Iterations 2
smoothSolver:  Solving for p, Initial residual = 0.027337319, Final residual = 6.5754963e-11, No Iterations 1
diagonal:  Solving for rho, Initial residual = 0, Final residual = 0, No Iterations 0
time step continuity errors : sum local = 1.3224542e-16, global = -2.410462e-17, cumulative = 1.5959224e-16
smoothSolver:  Solving for p, Initial residual = 5.3664113e-07, Final residual = 5.3664113e-07, No Iterations 0
diagonal:  Solving for rho, Initial residual = 0, Final residual = 0, No Iterations 0
time step continuity errors : sum local = 7.9944756e-13, global = -2.4112772e-17, cumulative = 1.3547946e-16
DILUPBiCGStab:  Solving for omega, Initial residual = 4.9385439e-05, Final residual = 2.7504808e-16, No Iterations 1
smoothSolver:  Solving for k, Initial residual = 0.36393424, Final residual = 1.957783e-11, No Iterations 1
ExecutionTime = 1.46 s  ClockTime = 2 s

forceCoeffs forces write:
    Coefficient	Total	Pressure	Viscous	Internal
    Cd:	0.095540308	0.05103581	0.044504498	0
    Cd(f):	0.047635064	0.025362608	0.022272456	0
    Cd(r):	0.047905244	0.025673202	0.022232042	0
    Cl:	0.00027018025	0.00031059376	-4.0413505e-05	0
    Cl(f):	-0.00010592167	0.00015529688	-0.00026121855	0
    Cl(r):	0.00037610192	0.00015529688	0.00022080504	0
    CmPitch:	-0.00024101179	-1.0218743e-14	-0.00024101179	0
    CmRoll:	-0.00013509013	-0.00015529688	2.0206753e-05	0
    CmYaw:	0.047770154	0.025517905	0.022252249	0
    Cs:	-1.3695397e-18	-1.2474815e-18	-1.2205828e-19	0
    Cs(f):	0.047770154	0.025517905	0.022252249	0
    Cs(r):	-0.047770154	-0.025517905	-0.022252249	0

    writing force and moment coefficient files.

Courant Number mean: 9.361419e-06 max: 8.3610158e-05
deltaT = 4.7698114e-06
Time = 2.8318864e-05

PIMPLE: iteration 1
diagonal:  Solving for rho, Initial residual = 0, Final residual = 0, No Iterations 0
smoothSolver:  Solving for Ux, Initial residual = 0.0092650075, Final residual = 1.2551926e-09, No Iterations 2
smoothSolver:  Solving for Uy, Initial residual = 0.11666268, Final residual = 4.804376e-11, No Iterations 2
smoothSolver:  Solving for e, Initial residual = 0.027269323, Final residual = 9.0665837e-08, No Iterations 2
smoothSolver:  Solving for p, Initial residual = 0.027270258, Final residual = 5.5968604e-11, No Iterations 1
diagonal:  Solving for rho, Initial residual = 0, Final residual = 0, No Iterations 0
time step continuity errors : sum local = 1.3655931e-16, global = -3.347068e-17, cumulative = 1.0200878e-16
smoothSolver:  Solving for p, Initial residual = 6.4260522e-07, Final residual = 6.4260522e-07, No Iterations 0
diagonal:  Solving for rho, Initial residual = 0, Final residual = 0, No Iterations 0
time step continuity errors : sum local = 1.1511511e-12, global = -3.3456615e-17, cumulative = 6.8552168e-17
DILUPBiCGStab:  Solving for omega, Initial residual = 5.9259834e-05, Final residual = 4.7718299e-16, No Iterations 1
smoothSolver:  Solving for k, Initial residual = 0.36333976, Final residual = 1.771749e-11, No Iterations 1
ExecutionTime = 1.48 s  ClockTime = 2 s

forceCoeffs forces write:
    Coefficient	Total	Pressure	Viscous	Internal
    Cd:	0.10587648	0.061372233	0.044504251	0
    Cd(f):	0.052771782	0.030499424	0.022272358	0
    Cd(r):	0.053104702	0.030872809	0.022231893	0
    Cl:	0.00033292058	0.00037338547	-4.046489e-05	0
    Cl(f):	-7.4555336e-05	0.00018669274	-0.00026124807	0
    Cl(r):	0.00040747592	0.00018669274	0.00022078318	0
    CmPitch:	-0.00024101563	-1.2599873e-14	-0.00024101563	0
    CmRoll:	-0.00016646029	-0.00018669274	2.0232445e-05	0
    CmYaw:	0.052938242	0.030686116	0.022252126	0
    Cs:	-1.3696327e-18	-1.2475748e-18	-1.2205795e-19	0
    Cs(f):	0.052938242	0.030686116	0.022252126	0
    Cs(r):	-0.052938242	-0.030686116	-0.022252126	0

    writing force and moment coefficient files.

Courant Number mean: 1.1233704e-05 max: 0.00010033177
deltaT = 5.7237743e-06
Time = 3.4042639e-05

PIMPLE: iteration 1
diagonal:  Solving for rho, Initial residual = 0, Final residual = 0, No Iterations 0
smoothSolver:  Solving for Ux, Initial residual = 0.0095016398, Final residual = 9.935192e-10, No Iterations 2
smoothSolver:  Solving for Uy, Initial residual = 0.11891334, Final residual = 7.0020095e-11, No Iterations 2
smoothSolver:  Solving for e, Initial residual = 0.027211989, Final residual = 7.5117772e-08, No Iterations 2
smoothSolver:  Solving for p, Initial residual = 0.027214882, Final residual = 4.6333674e-11, No Iterations 1
diagonal:  Solving for rho, Initial residual = 0, Final residual = 0, No Iterations 0
time step continuity errors : sum local = 1.3784189e-16, global = 4.4362054e-17, cumulative = 1.1291422e-16
smoothSolver:  Solving for p, Initial residual = 7.6977771e-07, Final residual = 7.6977771e-07, No Iterations 0
diagonal:  Solving for rho, Initial residual = 0, Final residual = 0, No Iterations 0
time step continuity errors : sum local = 1.6575989e-12, global = 4.4365946e-17, cumulative = 1.5728017e-16
DILUPBiCGStab:  Solving for omega, Initial residual = 7.1107924e-05, Final residual = 8.2467363e-16, No Iterations 1
smoothSolver:  Solving for k, Initial residual = 0.36284487, Final residual = 1.6818178e-11, No Iterations 1
ExecutionTime = 1.51 s  ClockTime = 2 s

forceCoeffs forces write:
    Coefficient	Total	Pressure	Viscous	Internal
    Cd:	0.11827954	0.073775592	0.044503953	0
    Cd(f):	0.058935694	0.036663454	0.02227224	0
    Cd(r):	0.05934385	0.037112137	0.022231713	0
    Cl:	0.0004081562	0.00044868279	-4.0526588e-05	0
    Cl(f):	-3.6942301e-05	0.00022434139	-0.00026128369	0
    Cl(r):	0.0004450985	0.00022434139	0.00022075711	0
    CmPitch:	-0.0002410204	-1.4699971e-14	-0.0002410204	0
    CmRoll:	-0.0002040781	-0.00022434139	2.0263294e-05	0
    CmYaw:	0.059139772	0.036887796	0.022251976	0
    Cs:	-1.3697443e-18	-1.2476867e-18	-1.2205754e-19	0
    Cs(f):	0.059139772	0.036887796	0.022251976	0
    Cs(r):	-0.059139772	-0.036887796	-0.022251976	0

    writing force and moment coefficient files.

Courant Number mean: 1.3480446e-05 max: 0.00012039752
deltaT = 6.8685283e-06
Time = 4.0911167e-05

PIMPLE: iteration 1
diagonal:  Solving for rho, Initial residual = 0, Final residual = 0, No Iterations 0
smoothSolver:  Solving for Ux, Initial residual = 0.0097532344, Final residual = 7.7420945e-10, No Iterations 2
smoothSolver:  Solving for Uy, Initial residual = 0.12091911, Final residual = 1.014677e-10, No Iterations 2
smoothSolver:  Solving for e, Initial residual = 0.027163755, Final residual = 6.30427e-08, No Iterations 2
smoothSolver:  Solving for p, Initial residual = 0.027169201, Final residual = 3.8523896e-11, No Iterations 1
diagonal:  Solving for rho, Initial residual = 0, Final residual = 0, No Iterations 0
time step continuity errors : sum local = 1.3977503e-16, global = -5.7641973e-17, cumulative = 9.9638195e-17
smoothSolver:  Solving for p, Initial residual = 9.2240228e-07, Final residual = 9.2240228e-07, No Iterations 0
diagonal:  Solving for rho, Initial residual = 0, Final residual = 0, No Iterations 0
time step continuity errors : sum local = 2.3868815e-12, global = -5.7638615e-17, cumulative = 4.199958e-17
DILUPBiCGStab:  Solving for omega, Initial residual = 8.5323908e-05, Final residual = 1.4273321e-15, No Iterations 1
smoothSolver:  Solving for k, Initial residual = 0.36243204, Final residual = 1.7092717e-11, No Iterations 1
ExecutionTime = 1.53 s  ClockTime = 2 s

forceCoeffs forces write:
    Coefficient	Total	Pressure	Viscous	Internal
    Cd:	0.1331627	0.088659112	0.044503591	0
    Cd(f):	0.06633217	0.044060074	0.022272096	0
    Cd(r):	0.066830533	0.044599038	0.022231495	0
    Cl:	0.00049836278	0.00053896346	-4.060068e-05	0
    Cl(f):	8.1550155e-06	0.00026948173	-0.00026132671	0
    Cl(r):	0.00049020776	0.00026948173	0.00022072603	0
    CmPitch:	-0.00024102637	-1.8270985e-14	-0.00024102637	0
    CmRoll:	-0.00024918139	-0.00026948173	2.030034e-05	0
    CmYaw:	0.066581351	0.044329556	0.022251795	0
    Cs:	-1.3698781e-18	-1.2478211e-18	-1.22057e-19	0
    Cs(f):	0.066581351	0.044329556	0.022251795	0
    Cs(r):	-0.066581351	-0.044329556	-0.022251795	0

    writing force and moment coefficient files.

Courant Number mean: 1.6176533e-05 max: 0.00014447611
deltaT = 8.2422363e-06
Time = 4.9153403e-05

PIMPLE: iteration 1
diagonal:  Solving for rho, Initial residual = 0, Final residual = 0, No Iterations 0
smoothSolver:  Solving for Ux, Initial residual = 0.01001562, Final residual = 5.9756981e-10, No Iterations 2
smoothSolver:  Solving for Uy, Initial residual = 0.12268975, Final residual = 1.4913693e-10, No Iterations 2
smoothSolver:  Solving for e, Initial residual = 0.027122832, Final residual = 5.1226878e-08, No Iterations 2
smoothSolver:  Solving for p, Initial residual = 0.027131618, Final residual = 3.1798274e-11, No Iterations 1
diagonal:  Solving for rho, Initial residual = 0, Final residual = 0, No Iterations 0
time step continuity errors : sum local = 1.3995814e-16, global = -4.98364e-17, cumulative = -7.8368203e-18
smoothSolver:  Solving for p, Initial residual = 1.1055725e-06, Final residual = 1.1055725e-06, No Iterations 0
diagonal:  Solving for rho, Initial residual = 0, Final residual = 0, No Iterations 0
time step continuity errors : sum local = 3.4370443e-12, global = -4.9833413e-17, cumulative = -5.7670233e-17
DILUPBiCGStab:  Solving for omega, Initial residual = 0.00010238067, Final residual = 2.4660456e-15, No Iterations 1
smoothSolver:  Solving for k, Initial residual = 0.36208724, Final residual = 1.9212611e-11, No Iterations 1
ExecutionTime = 1.56 s  ClockTime = 2 s

forceCoeffs forces write:
    Coefficient	Total	Pressure	Viscous	Internal
    Cd:	0.15102175	0.1065186	0.04450315	0
    Cd(f):	0.075207625	0.052935705	0.02227192	0
    Cd(r):	0.075814126	0.053582896	0.02223123	0
    Cl:	0.00060650084	0.00064719051	-4.0689668e-05	0
    Cl(f):	6.2216517e-05	0.00032359525	-0.00026137874	0
    Cl(r):	0.00054428432	0.00032359525	0.00022068907	0
    CmPitch:	-0.0002410339	-2.162305e-14	-0.0002410339	0
    CmRoll:	-0.00030325042	-0.00032359525	2.0344834e-05	0
    CmYaw:	0.075510875	0.0532593	0.022251575	0
    Cs:	-1.3700386e-18	-1.2479823e-18	-1.2205632e-19	0
    Cs(f):	0.075510875	0.0532593	0.022251575	0
    Cs(r):	-0.075510875	-0.0532593	-0.022251575	0

    writing force and moment coefficient files.

Courant Number mean: 1.9411844e-05 max: 0.00017337005
deltaT = 9.8906884e-06
Time = 5.9044092e-05

PIMPLE: iteration 1
diagonal:  Solving for rho, Initial residual = 0, Final residual = 0, No Iterations 0
smoothSolver:  Solving for Ux, Initial residual = 0.010284143, Final residual = 4.6669827e-10, No Iterations 2
smoothSolver:  Solving for Uy, Initial residual = 0.12423956, Final residual = 1.9316003e-10, No Iterations 2
smoothSolver:  Solving for e, Initial residual = 0.027087849, Final residual = 4.3752847e-08, No Iterations 2
smoothSolver:  Solving for p, Initial residual = 0.02710081, Final residual = 2.6487574e-11, No Iterations 1
diagonal:  Solving for rho, Initial residual = 0, Final residual = 0, No Iterations 0
time step continuity errors : sum local = 1.3087595e-16, global = 1.0163792e-17, cumulative = -4.7506441e-17
smoothSolver:  Solving for p, Initial residual = 1.3254015e-06, Final residual = 1.3254015e-06, No Iterations 0
diagonal:  Solving for rho, Initial residual = 0, Final residual = 0, No Iterations 0
time step continuity errors : sum local = 4.9492632e-12, global = 1.0172464e-17, cumulative = -3.7333977e-17
DILUPBiCGStab:  Solving for omega, Initial residual = 0.00012284527, Final residual = 4.270491e-15, No Iterations 1
smoothSolver:  Solving for k, Initial residual = 0.36179859, Final residual = 2.3077786e-11, No Iterations 1
ExecutionTime = 1.58 s  ClockTime = 2 s

forceCoeffs forces write:
    Coefficient	Total	Pressure	Viscous	Internal
    Cd:	0.17245153	0.12794892	0.044502613	0
    Cd(f):	0.085857712	0.063586007	0.022271705	0
    Cd(r):	0.08659382	0.064362912	0.022230908	0
    Cl:	0.00073610798	0.00077690454	-4.0796564e-05	0
    Cl(f):	0.00012701054	0.00038845227	-0.00026144173	0
    Cl(r):	0.00060909744	0.00038845227	0.00022064517	0
    CmPitch:	-0.00024104345	-2.5388804e-14	-0.00024104345	0
    CmRoll:	-0.00036805399	-0.00038845227	2.0398282e-05	0
    CmYaw:	0.086225766	0.06397446	0.022251306	0
    Cs:	-1.3702312e-18	-1.2481757e-18	-1.2205543e-19	0
    Cs(f):	0.086225766	0.06397446	0.022251306	0
    Cs(r):	-0.086225766	-0.06397446	-0.022251306	0

    writing force and moment coefficient files.

Courant Number mean: 2.3294224e-05 max: 0.00020804222
deltaT = 1.1868831e-05
Time = 7.0912922e-05

PIMPLE: iteration 1
diagonal:  Solving for rho, Initial residual = 0, Final residual = 0, No Iterations 0
smoothSolver:  Solving for Ux, Initial residual = 0.010553947, Final residual = 3.6186313e-10, No Iterations 2
smoothSolver:  Solving for Uy, Initial residual = 0.12558839, Final residual = 2.7257215e-10, No Iterations 2
smoothSolver:  Solving for e, Initial residual = 0.027057622, Final residual = 3.5610958e-08, No Iterations 2
smoothSolver:  Solving for p, Initial residual = 0.027075695, Final residual = 2.2014095e-11, No Iterations 1
diagonal:  Solving for rho, Initial residual = 0, Final residual = 0, No Iterations 0
time step continuity errors : sum local = 1.3316251e-16, global = 1.5450856e-17, cumulative = -2.1883121e-17
smoothSolver:  Solving for p, Initial residual = 1.5892311e-06, Final residual = 1.5892311e-06, No Iterations 0
diagonal:  Solving for rho, Initial residual = 0, Final residual = 0, No Iterations 0
time step continuity errors : sum local = 7.1268541e-12, global = 1.5449177e-17, cumulative = -6.4339443e-18
DILUPBiCGStab:  Solving for omega, Initial residual = 0.00014739767, Final residual = 7.3787492e-15, No Iterations 1
smoothSolver:  Solving for k, Initial residual = 0.36155608, Final residual = 2.9852489e-11, No Iterations 1
ExecutionTime = 1.6 s  ClockTime = 2 s

forceCoeffs forces write:
    Coefficient	Total	Pressure	Viscous	Internal
    Cd:	0.19816569	0.15366374	0.044501955	0
    Cd(f):	0.098637142	0.076365701	0.02227144	0
    Cd(r):	0.099528549	0.077298034	0.022230515	0
    Cl:	0.00089140756	0.00093233256	-4.0924999e-05	0
    Cl(f):	0.00020464814	0.00046616628	-0.00026151814	0
    Cl(r):	0.00068675942	0.00046616628	0.00022059315	0
    CmPitch:	-0.00024105564	-3.0086914e-14	-0.00024105564	0
    CmRoll:	-0.00044570378	-0.00046616628	2.0462499e-05	0
    CmYaw:	0.099082845	0.076831868	0.022250978	0
    Cs:	-1.3704621e-18	-1.2484078e-18	-1.2205428e-19	0
    Cs(f):	0.099082845	0.076831868	0.022250978	0
    Cs(r):	-0.099082845	-0.076831868	-0.022250978	0

    writing force and moment coefficient files.

Courant Number mean: 2.795308e-05 max: 0.00024964789
deltaT = 1.42426e-05
Time = 8.5155523e-05

PIMPLE: iteration 1
diagonal:  Solving for rho, Initial residual = 0, Final residual = 0, No Iterations 0
smoothSolver:  Solving for Ux, Initial residual = 0.010820239, Final residual = 2.8545958e-10, No Iterations 2
smoothSolver:  Solving for Uy, Initial residual = 0.12675357, Final residual = 3.9087099e-10, No Iterations 2
smoothSolver:  Solving for e, Initial residual = 0.027031072, Final residual = 2.9953252e-08, No Iterations 2
smoothSolver:  Solving for p, Initial residual = 0.027055398, Final residual = 1.8523937e-11, No Iterations 1
diagonal:  Solving for rho, Initial residual = 0, Final residual = 0, No Iterations 0
time step continuity errors : sum local = 1.3448997e-16, global = -2.9216162e-17, cumulative = -3.5650106e-17
smoothSolver:  Solving for p, Initial residual = 1.9058679e-06, Final residual = 1.9058679e-06, No Iterations 0
diagonal:  Solving for rho, Initial residual = 0, Final residual = 0, No Iterations 0
time step continuity errors : sum local = 1.0262535e-11, global = -2.9232683e-17, cumulative = -6.4882789e-17
DILUPBiCGStab:  Solving for omega, Initial residual = 0.00017685319, Final residual = 1.2698844e-14, No Iterations 1
smoothSolver:  Solving for k, Initial residual = 0.36135145, Final residual = 3.9407698e-11, No Iterations 1
ExecutionTime = 1.63 s  ClockTime = 2 s

forceCoeffs forces write:
    Coefficient	Total	Pressure	Viscous	Internal
    Cd:	0.22902036	0.18451921	0.044501149	0
    Cd(f):	0.11397146	0.091700348	0.022271114	0
    Cd(r):	0.1150489	0.092818863	0.022230035	0
    Cl:	0.0010774361	0.0011185155	-4.1079349e-05	0
    Cl(f):	0.00029764672	0.00055925775	-0.00026161102	0
    Cl(r):	0.00077978942	0.00055925775	0.00022053167	0
    CmPitch:	-0.00024107135	-3.6105762e-14	-0.00024107135	0
    CmRoll:	-0.00053871807	-0.00055925775	2.0539674e-05	0
    CmYaw:	0.11451018	0.092259606	0.022250574	0
    Cs:	-1.3707391e-18	-1.2486863e-18	-1.2205276e-19	0
    Cs(f):	0.11451018	0.092259606	0.022250574	0
    Cs(r):	-0.11451018	-0.092259606	-0.022250574	0

    writing force and moment coefficient files.

Courant Number mean: 3.3543702e-05 max: 0.00029957329
deltaT = 1.7091125e-05
Time = 0.00010224665

PIMPLE: iteration 1
diagonal:  Solving for rho, Initial residual = 0, Final residual = 0, No Iterations 0
smoothSolver:  Solving for Ux, Initial residual = 0.011078571, Final residual = 2.3438772e-10, No Iterations 2
smoothSolver:  Solving for Uy, Initial residual = 0.12775393, Final residual = 5.7853781e-10, No Iterations 2
smoothSolver:  Solving for e, Initial residual = 0.027007312, Final residual = 2.513973e-08, No Iterations 2
smoothSolver:  Solving for p, Initial residual = 0.027039221, Final residual = 1.5782492e-11, No Iterations 1
diagonal:  Solving for rho, Initial residual = 0, Final residual = 0, No Iterations 0
time step continuity errors : sum local = 1.4487854e-16, global = 6.991628e-17, cumulative = 5.0334903e-18
smoothSolver:  Solving for p, Initial residual = 2.2858914e-06, Final residual = 2.2858914e-06, No Iterations 0
diagonal:  Solving for rho, Initial residual = 0, Final residual = 0, No Iterations 0
time step continuity errors : sum local = 1.4777825e-11, global = 6.9930254e-17, cumulative = 7.4963744e-17
DILUPBiCGStab:  Solving for omega, Initial residual = 0.00021218924, Final residual = 2.1834655e-14, No Iterations 1
smoothSolver:  Solving for k, Initial residual = 0.36117785, Final residual = 5.3860616e-11, No Iterations 1
ExecutionTime = 1.65 s  ClockTime = 2 s

forceCoeffs forces write:
    Coefficient	Total	Pressure	Viscous	Internal
    Cd:	0.26604255	0.2215424	0.044500156	0
    Cd(f):	0.13237118	0.11010047	0.02227071	0
    Cd(r):	0.13367137	0.11144193	0.022229445	0
    Cl:	0.001300192	0.0013414569	-4.1264896e-05	0
    Cl(f):	0.00040900425	0.00067072843	-0.00026172417	0
    Cl(r):	0.0008911877	0.00067072843	0.00022045928	0
    CmPitch:	-0.00024109173	-4.3373296e-14	-0.00024109173	0
    CmRoll:	-0.00065009598	-0.00067072843	2.0632448e-05	0
    CmYaw:	0.13302128	0.1107712	0.022250078	0
    Cs:	-1.3710712e-18	-1.2490205e-18	-1.2205074e-19	0
    Cs(f):	0.13302128	0.1107712	0.022250078	0
    Cs(r):	-0.13302128	-0.1107712	-0.022250078	0

    writing force and moment coefficient files.

Courant Number mean: 4.0252452e-05 max: 0.00035948171
deltaT = 2.0509329e-05
Time = 0.00012275598

PIMPLE: iteration 1
diagonal:  Solving for rho, Initial residual = 0, Final residual = 0, No Iterations 0
smoothSolver:  Solving for Ux, Initial residual = 0.01132507, Final residual = 2.0891908e-10, No Iterations 2
smoothSolver:  Solving for Uy, Initial residual = 0.12860763, Final residual = 9.6038149e-10, No Iterations 2
smoothSolver:  Solving for e, Initial residual = 0.026985508, Final residual = 2.1244764e-08, No Iterations 2
smoothSolver:  Solving for p, Initial residual = 0.027026567, Final residual = 1.2825521e-11, No Iterations 1
diagonal:  Solving for rho, Initial residual = 0, Final residual = 0, No Iterations 0
time step continuity errors : sum local = 1.3390278e-16, global = 4.6273053e-17, cumulative = 1.212368e-16
smoothSolver:  Solving for p, Initial residual = 2.7419914e-06, Final residual = 2.7419914e-06, No Iterations 0
diagonal:  Solving for rho, Initial residual = 0, Final residual = 0, No Iterations 0
time step continuity errors : sum local = 2.1279548e-11, global = 4.6276984e-17, cumulative = 1.6751378e-16
DILUPBiCGStab:  Solving for omega, Initial residual = 0.00025457692, Final residual = 3.7532045e-14, No Iterations 1
smoothSolver:  Solving for k, Initial residual = 0.36102906, Final residual = 7.5526152e-11, No Iterations 1
ExecutionTime = 1.67 s  ClockTime = 2 s

forceCoeffs forces write:
    Coefficient	Total	Pressure	Viscous	Internal
    Cd:	0.31046409	0.26596516	0.044498927	0
    Cd(f):	0.15444864	0.13217844	0.022270207	0
    Cd(r):	0.15601545	0.13378673	0.022228719	0
    Cl:	0.0015668062	0.0016082942	-4.1488022e-05	0
    Cl(f):	0.00054228469	0.00080414709	-0.0002618624	0
    Cl(r):	0.0010245215	0.00080414709	0.00022037438	0
    CmPitch:	-0.00024111839	-5.1678585e-14	-0.00024111839	0
    CmRoll:	-0.00078340308	-0.00080414709	2.0744011e-05	0
    CmYaw:	0.15523205	0.13298258	0.022249463	0
    Cs:	-1.3714695e-18	-1.2494214e-18	-1.2204804e-19	0
    Cs(f):	0.15523205	0.13298258	0.022249463	0
    Cs(r):	-0.15523205	-0.13298258	-0.022249463	0

    writing force and moment coefficient files.

Courant Number mean: 4.830289e-05 max: 0.00043136814
deltaT = 2.4611205e-05
Time = 0.00014736718

PIMPLE: iteration 1
diagonal:  Solving for rho, Initial residual = 0, Final residual = 0, No Iterations 0
smoothSolver:  Solving for Ux, Initial residual = 0.01155667, Final residual = 1.9129615e-10, No Iterations 2
smoothSolver:  Solving for Uy, Initial residual = 0.12933334, Final residual = 1.3205898e-09, No Iterations 2
smoothSolver:  Solving for e, Initial residual = 0.026964773, Final residual = 1.7555494e-08, No Iterations 2
smoothSolver:  Solving for p, Initial residual = 0.027017085, Final residual = 1.071203e-11, No Iterations 1
diagonal:  Solving for rho, Initial residual = 0, Final residual = 0, No Iterations 0
time step continuity errors : sum local = 1.3198004e-16, global = 3.325465e-18, cumulative = 1.7083925e-16
smoothSolver:  Solving for p, Initial residual = 3.2894245e-06, Final residual = 3.2894245e-06, No Iterations 0
diagonal:  Solving for rho, Initial residual = 0, Final residual = 0, No Iterations 0
time step continuity errors : sum local = 3.0641644e-11, global = 3.3225242e-18, cumulative = 1.7416177e-16
DILUPBiCGStab:  Solving for omega, Initial residual = 0.00030542056, Final residual = 6.4227023e-14, No Iterations 1
smoothSolver:  Solving for k, Initial residual = 0.36090079, Final residual = 1.0426613e-10, No Iterations 1
ExecutionTime = 1.7 s  ClockTime = 2 s

forceCoeffs forces write:
    Coefficient	Total	Pressure	Viscous	Internal
    Cd:	0.36376249	0.31926509	0.044497399	0
    Cd(f):	0.18093837	0.1586688	0.022269578	0
    Cd(r):	0.18282411	0.16059629	0.022227821	0
    Cl:	0.0018857403	0.0019274967	-4.1756446e-05	0
    Cl(f):	0.00070171657	0.00096374836	-0.00026203178	0
    Cl(r):	0.0011840237	0.00096374836	0.00022027534	0
    CmPitch:	-0.00024115356	-6.1811301e-14	-0.00024115356	0
    CmRoll:	-0.00094287013	-0.00096374836	2.0878223e-05	0
    CmYaw:	0.18188124	0.15963255	0.0222487	0
    Cs:	-1.3719468e-18	-1.2499024e-18	-1.220444e-19	0
    Cs(f):	0.18188124	0.15963255	0.0222487	0
    Cs(r):	-0.18188124	-0.15963255	-0.0222487	0

    writing force and moment coefficient files.

Courant Number mean: 5.7963487e-05 max: 0.00051762772
deltaT = 2.9533461e-05
Time = 0.00017690064

PIMPLE: iteration 1
diagonal:  Solving for rho, Initial residual = 0, Final residual = 0, No Iterations 0
smoothSolver:  Solving for Ux, Initial residual = 0.011771104, Final residual = 1.8776198e-10, No Iterations 2
smoothSolver:  Solving for Uy, Initial residual = 0.12994893, Final residual = 1.7268528e-09, No Iterations 2
smoothSolver:  Solving for e, Initial residual = 0.026944363, Final residual = 1.4501765e-08, No Iterations 2
smoothSolver:  Solving for p, Initial residual = 0.027010403, Final residual = 9.0178322e-12, No Iterations 1
diagonal:  Solving for rho, Initial residual = 0, Final residual = 0, No Iterations 0
time step continuity errors : sum local = 1.406105e-16, global = 4.7184922e-17, cumulative = 2.2134669e-16
smoothSolver:  Solving for p, Initial residual = 3.9464839e-06, Final residual = 3.9464839e-06, No Iterations 0
diagonal:  Solving for rho, Initial residual = 0, Final residual = 0, No Iterations 0
time step continuity errors : sum local = 4.4122114e-11, global = 4.7188327e-17, cumulative = 2.6853502e-16
DILUPBiCGStab:  Solving for omega, Initial residual = 0.00036640132, Final residual = 1.0992525e-13, No Iterations 1
smoothSolver:  Solving for k, Initial residual = 0.3607883, Final residual = 1.4677086e-10, No Iterations 1
ExecutionTime = 1.72 s  ClockTime = 2 s

forceCoeffs forces write:
    Coefficient	Total	Pressure	Viscous	Internal
    Cd:	0.42770949	0.383214	0.044495489	0
    Cd(f):	0.21272124	0.19045245	0.022268784	0
    Cd(r):	0.21498825	0.19276154	0.022226705	0
    Cl:	0.0022670068	0.0023090864	-4.2079516e-05	0
    Cl(f):	0.00089230308	0.0011545432	-0.0002622401	0
    Cl(r):	0.0013747038	0.0011545432	0.00022016059	0
    CmPitch:	-0.00024120035	-7.4382158e-14	-0.00024120035	0
    CmRoll:	-0.0011335034	-0.0011545432	2.1039758e-05	0
    CmYaw:	0.21385474	0.191607	0.022247745	0
    Cs:	-1.3725189e-18	-1.2504795e-18	-1.2203946e-19	0
    Cs(f):	0.21385474	0.191607	0.022247745	0
    Cs(r):	-0.21385474	-0.191607	-0.022247745	0

    writing force and moment coefficient files.

Courant Number mean: 6.955621e-05 max: 0.00062113198
deltaT = 3.5440132e-05
Time = 0.00021234078

PIMPLE: iteration 1
diagonal:  Solving for rho, Initial residual = 0, Final residual = 0, No Iterations 0
smoothSolver:  Solving for Ux, Initial residual = 0.011966972, Final residual = 2.037285e-10, No Iterations 2
smoothSolver:  Solving for Uy, Initial residual = 0.13046949, Final residual = 2.2857059e-09, No Iterations 2
smoothSolver:  Solving for e, Initial residual = 0.026923442, Final residual = 1.2143662e-08, No Iterations 2
smoothSolver:  Solving for p, Initial residual = 0.027006213, Final residual = 8.0525132e-12, No Iterations 1
diagonal:  Solving for rho, Initial residual = 0, Final residual = 0, No Iterations 0
time step continuity errors : sum local = 1.561185e-16, global = -8.5074162e-17, cumulative = 1.8346086e-16
smoothSolver:  Solving for p, Initial residual = 4.735125e-06, Final residual = 4.735125e-06, No Iterations 0
[...]
    Cl(f):	0.75655675	0.75620881	0.00034794486	0
    Cl(r):	0.75470752	0.75620881	-0.0015012881	0
    CmPitch:	0.00092461649	-5.1161974e-13	0.00092461649	0
    CmRoll:	-0.75563214	-0.75620881	0.00057667163	0
    CmYaw:	1.6533041	1.6462474	0.00705667	0
    Cs:	-1.2820388e-18	-1.2879631e-18	5.9242504e-21	0
    Cs(f):	1.6533041	1.6462474	0.00705667	0
    Cs(r):	-1.6533041	-1.6462474	-0.00705667	0

    writing force and moment coefficient files.

Courant Number mean: 0.079713497 max: 0.81819211
deltaT = 0.03367054
Time = 17.070663

PIMPLE: iteration 1
diagonal:  Solving for rho, Initial residual = 0, Final residual = 0, No Iterations 0
smoothSolver:  Solving for Ux, Initial residual = 0.091632314, Final residual = 1.2982991e-06, No Iterations 4
smoothSolver:  Solving for Uy, Initial residual = 0.13365928, Final residual = 2.5859699e-06, No Iterations 4
smoothSolver:  Solving for e, Initial residual = 0.096176831, Final residual = 1.2194796e-06, No Iterations 4
smoothSolver:  Solving for p, Initial residual = 0.19822263, Final residual = 0.0065479091, No Iterations 2
diagonal:  Solving for rho, Initial residual = 0, Final residual = 0, No Iterations 0
time step continuity errors : sum local = 0.0003140479, global = 4.1451498e-06, cumulative = -0.0025344172
smoothSolver:  Solving for p, Initial residual = 0.0099922434, Final residual = 7.6853693e-06, No Iterations 13
diagonal:  Solving for rho, Initial residual = 0, Final residual = 0, No Iterations 0
time step continuity errors : sum local = 3.6887364e-07, global = 4.3282019e-08, cumulative = -0.0025343739
DILUPBiCGStab:  Solving for omega, Initial residual = 0.002378689, Final residual = 1.5143907e-11, No Iterations 2
smoothSolver:  Solving for k, Initial residual = 0.0012683959, Final residual = 7.9407307e-06, No Iterations 1
ExecutionTime = 18.81 s  ClockTime = 19 s

forceCoeffs forces write:
    Coefficient	Total	Pressure	Viscous	Internal
    Cd:	3.6421256	3.6281948	0.013930811	0
    Cd(f):	1.2675143	1.2599406	0.0075736451	0
    Cd(r):	2.3746113	2.3682541	0.0063571656	0
    Cl:	1.107097	1.1083135	-0.0012164795	0
    Cl(f):	0.55438366	0.55415674	0.00022691744	0
    Cl(r):	0.55271335	0.55415674	-0.0014433969	0
    CmPitch:	0.00083515716	-1.302665e-11	0.00083515717	0
    CmRoll:	-0.5535485	-0.55415674	0.00060823973	0
    CmYaw:	1.8210628	1.8140974	0.0069654054	0
    Cs:	-1.2896824e-18	-1.2965109e-18	6.8285644e-21	0
    Cs(f):	1.8210628	1.8140974	0.0069654054	0
    Cs(r):	-1.8210628	-1.8140974	-0.0069654054	0

    writing force and moment coefficient files.

Courant Number mean: 0.077960217 max: 0.82066335
deltaT = 0.032913899
Time = 17.103577

PIMPLE: iteration 1
diagonal:  Solving for rho, Initial residual = 0, Final residual = 0, No Iterations 0
smoothSolver:  Solving for Ux, Initial residual = 0.090306719, Final residual = 1.1684127e-06, No Iterations 4
smoothSolver:  Solving for Uy, Initial residual = 0.13027748, Final residual = 2.8662491e-06, No Iterations 4
smoothSolver:  Solving for e, Initial residual = 0.093463137, Final residual = 1.1794843e-06, No Iterations 4
smoothSolver:  Solving for p, Initial residual = 0.19436742, Final residual = 0.0059804169, No Iterations 2
diagonal:  Solving for rho, Initial residual = 0, Final residual = 0, No Iterations 0
time step continuity errors : sum local = 0.00028613297, global = 2.4421314e-06, cumulative = -0.0025319317
smoothSolver:  Solving for p, Initial residual = 0.0093993685, Final residual = 8.8424705e-06, No Iterations 12
diagonal:  Solving for rho, Initial residual = 0, Final residual = 0, No Iterations 0
time step continuity errors : sum local = 4.2185161e-07, global = 1.3189263e-08, cumulative = -0.0025319185
DILUPBiCGStab:  Solving for omega, Initial residual = 0.0023418618, Final residual = 1.1008178e-11, No Iterations 2
smoothSolver:  Solving for k, Initial residual = 0.0012775586, Final residual = 7.7419288e-06, No Iterations 1
ExecutionTime = 18.84 s  ClockTime = 19 s

forceCoeffs forces write:
    Coefficient	Total	Pressure	Viscous	Internal
    Cd:	3.8329623	3.819265	0.013697393	0
    Cd(f):	1.5150157	1.5075538	0.0074619627	0
    Cd(r):	2.3179466	2.3117112	0.0062354308	0
    Cl:	0.80293091	0.80415744	-0.0012265319	0
    Cl(f):	0.40224673	0.40207872	0.00016801119	0
    Cl(r):	0.40068418	0.40207872	-0.0013945431	0
    CmPitch:	0.00078127714	-2.3887426e-11	0.00078127717	0
    CmRoll:	-0.40146545	-0.40207872	0.00061326597	0
    CmYaw:	1.9164812	1.9096325	0.0068486967	0
    Cs:	-1.3023726e-18	-1.3101108e-18	7.7382481e-21	0
    Cs(f):	1.9164812	1.9096325	0.0068486967	0
    Cs(r):	-1.9164812	-1.9096325	-0.0068486967	0

    writing force and moment coefficient files.

Courant Number mean: 0.076244465 max: 0.81916877
deltaT = 0.032182479
Time = 17.135759

PIMPLE: iteration 1
diagonal:  Solving for rho, Initial residual = 0, Final residual = 0, No Iterations 0
smoothSolver:  Solving for Ux, Initial residual = 0.088252439, Final residual = 1.0237701e-06, No Iterations 4
smoothSolver:  Solving for Uy, Initial residual = 0.12647407, Final residual = 2.730076e-06, No Iterations 4
smoothSolver:  Solving for e, Initial residual = 0.09107122, Final residual = 9.1320482e-07, No Iterations 4
smoothSolver:  Solving for p, Initial residual = 0.19131952, Final residual = 0.0055315021, No Iterations 2
diagonal:  Solving for rho, Initial residual = 0, Final residual = 0, No Iterations 0
time step continuity errors : sum local = 0.00026301774, global = 9.6299759e-08, cumulative = -0.0025318222
smoothSolver:  Solving for p, Initial residual = 0.0088557231, Final residual = 7.8739271e-06, No Iterations 12
diagonal:  Solving for rho, Initial residual = 0, Final residual = 0, No Iterations 0
time step continuity errors : sum local = 3.7345163e-07, global = -2.5739419e-08, cumulative = -0.002531848
DILUPBiCGStab:  Solving for omega, Initial residual = 0.0023203216, Final residual = 9.0910051e-12, No Iterations 2
smoothSolver:  Solving for k, Initial residual = 0.0012459137, Final residual = 7.0115552e-06, No Iterations 1
ExecutionTime = 18.87 s  ClockTime = 19 s

forceCoeffs forces write:
    Coefficient	Total	Pressure	Viscous	Internal
    Cd:	3.8602051	3.8467193	0.013485798	0
    Cd(f):	1.6058036	1.5984855	0.0073180664	0
    Cd(r):	2.2544015	2.2482338	0.0061677317	0
    Cl:	0.64859794	0.64974827	-0.0011503347	0
    Cl(f):	0.32506517	0.32487414	0.00019103555	0
    Cl(r):	0.32353277	0.32487414	-0.0013413702	0
    CmPitch:	0.00076620285	-3.3800851e-11	0.00076620288	0
    CmRoll:	-0.32429897	-0.32487414	0.00057516733	0
    CmYaw:	1.9301025	1.9233596	0.0067428991	0
    Cs:	-1.3139633e-18	-1.3220237e-18	8.060355e-21	0
    Cs(f):	1.9301025	1.9233596	0.0067428991	0
    Cs(r):	-1.9301025	-1.9233596	-0.0067428991	0

    writing force and moment coefficient files.

Courant Number mean: 0.074620245 max: 0.80803612
deltaT = 0.031824896
Time = 17.167584

PIMPLE: iteration 1
diagonal:  Solving for rho, Initial residual = 0, Final residual = 0, No Iterations 0
smoothSolver:  Solving for Ux, Initial residual = 0.086766696, Final residual = 8.9325254e-07, No Iterations 4
smoothSolver:  Solving for Uy, Initial residual = 0.12413523, Final residual = 2.1626628e-06, No Iterations 4
smoothSolver:  Solving for e, Initial residual = 0.090194002, Final residual = 7.6397182e-07, No Iterations 4
smoothSolver:  Solving for p, Initial residual = 0.19061312, Final residual = 0.00537321, No Iterations 2
diagonal:  Solving for rho, Initial residual = 0, Final residual = 0, No Iterations 0
time step continuity errors : sum local = 0.00025462462, global = -1.9579292e-06, cumulative = -0.0025338059
smoothSolver:  Solving for p, Initial residual = 0.0086222512, Final residual = 7.7412667e-06, No Iterations 12
diagonal:  Solving for rho, Initial residual = 0, Final residual = 0, No Iterations 0
time step continuity errors : sum local = 3.6658661e-07, global = -5.5482459e-08, cumulative = -0.0025338614
DILUPBiCGStab:  Solving for omega, Initial residual = 0.0023282471, Final residual = 7.1544339e-12, No Iterations 2
smoothSolver:  Solving for k, Initial residual = 0.0012191102, Final residual = 6.4488657e-06, No Iterations 1
ExecutionTime = 18.9 s  ClockTime = 20 s

forceCoeffs forces write:
    Coefficient	Total	Pressure	Viscous	Internal
    Cd:	3.7248691	3.7114717	0.013397343	0
    Cd(f):	1.542887	1.5357126	0.0071744268	0
    Cd(r):	2.181982	2.1757591	0.0062229161	0
    Cl:	0.63909501	0.64004652	-0.00095151067	0
    Cl(f):	0.32032218	0.32002326	0.00029891664	0
    Cl(r):	0.31877283	0.32002326	-0.0012504273	0
    CmPitch:	0.00077467194	-3.4450014e-11	0.00077467197	0
    CmRoll:	-0.31954751	-0.32002326	0.00047575533	0
    CmYaw:	1.8624345	1.8557359	0.0066986714	0
    Cs:	-1.3165572e-18	-1.3247123e-18	8.1550607e-21	0
    Cs(f):	1.8624345	1.8557359	0.0066986714	0
    Cs(r):	-1.8624345	-1.8557359	-0.0066986714	0

    writing force and moment coefficient files.

Courant Number mean: 0.073868774 max: 0.79783383
deltaT = 0.031824896
Time = 17.199409

PIMPLE: iteration 1
diagonal:  Solving for rho, Initial residual = 0, Final residual = 0, No Iterations 0
smoothSolver:  Solving for Ux, Initial residual = 0.086246221, Final residual = 8.0708308e-07, No Iterations 4
smoothSolver:  Solving for Uy, Initial residual = 0.12375751, Final residual = 1.6715012e-06, No Iterations 4
smoothSolver:  Solving for e, Initial residual = 0.090370967, Final residual = 7.0190035e-07, No Iterations 4
smoothSolver:  Solving for p, Initial residual = 0.19165337, Final residual = 0.0055332034, No Iterations 2
diagonal:  Solving for rho, Initial residual = 0, Final residual = 0, No Iterations 0
time step continuity errors : sum local = 0.00026222327, global = -3.6082998e-06, cumulative = -0.0025374697
smoothSolver:  Solving for p, Initial residual = 0.0087975518, Final residual = 8.0943087e-06, No Iterations 12
diagonal:  Solving for rho, Initial residual = 0, Final residual = 0, No Iterations 0
time step continuity errors : sum local = 3.835147e-07, global = -7.8721219e-08, cumulative = -0.0025375484
DILUPBiCGStab:  Solving for omega, Initial residual = 0.002384534, Final residual = 4.5290534e-12, No Iterations 2
smoothSolver:  Solving for k, Initial residual = 0.0012154676, Final residual = 6.3744611e-06, No Iterations 1
ExecutionTime = 18.93 s  ClockTime = 20 s

forceCoeffs forces write:
    Coefficient	Total	Pressure	Viscous	Internal
    Cd:	3.4351103	3.4216336	0.013476703	0
    Cd(f):	1.3489312	1.3418667	0.0070645102	0
    Cd(r):	2.0861791	2.0797669	0.0064121929	0
    Cl:	0.73724785	0.73790017	-0.00065231735	0
    Cl(f):	0.36944384	0.36895008	0.00049375366	0
    Cl(r):	0.36780401	0.36895008	-0.001146071	0
    CmPitch:	0.00081991232	-2.1049594e-11	0.00081991234	0
    CmRoll:	-0.36862392	-0.36895008	0.00032615868	0
    CmYaw:	1.7175552	1.7108168	0.0067383515	0
    Cs:	-1.3073491e-18	-1.3157527e-18	8.4035928e-21	0
    Cs(f):	1.7175552	1.7108168	0.0067383515	0
    Cs(r):	-1.7175552	-1.7108168	-0.0067383515	0

    writing force and moment coefficient files.

Courant Number mean: 0.073901231 max: 0.84151343
deltaT = 0.03011388
Time = 17.229523

PIMPLE: iteration 1
diagonal:  Solving for rho, Initial residual = 0, Final residual = 0, No Iterations 0
smoothSolver:  Solving for Ux, Initial residual = 0.081548775, Final residual = 6.188147e-07, No Iterations 4
smoothSolver:  Solving for Uy, Initial residual = 0.11808633, Final residual = 1.1657543e-06, No Iterations 4
smoothSolver:  Solving for e, Initial residual = 0.085787069, Final residual = 5.5238788e-07, No Iterations 4
smoothSolver:  Solving for p, Initial residual = 0.1824792, Final residual = 0.0046308931, No Iterations 2
diagonal:  Solving for rho, Initial residual = 0, Final residual = 0, No Iterations 0
time step continuity errors : sum local = 0.00021893192, global = -3.7629322e-06, cumulative = -0.0025413114
smoothSolver:  Solving for p, Initial residual = 0.0077289824, Final residual = 7.3115255e-06, No Iterations 11
diagonal:  Solving for rho, Initial residual = 0, Final residual = 0, No Iterations 0
time step continuity errors : sum local = 3.4613085e-07, global = -7.1941633e-08, cumulative = -0.0025413833
DILUPBiCGStab:  Solving for omega, Initial residual = 0.0023386176, Final residual = 2.8762951e-12, No Iterations 2
smoothSolver:  Solving for k, Initial residual = 0.0011699448, Final residual = 6.0342186e-06, No Iterations 1
ExecutionTime = 18.96 s  ClockTime = 20 s

forceCoeffs forces write:
    Coefficient	Total	Pressure	Viscous	Internal
    Cd:	3.0271207	3.0134327	0.013687955	0
    Cd(f):	1.0722747	1.0652629	0.0070118082	0
    Cd(r):	1.954846	1.9481698	0.0066761467	0
    Cl:	0.88257124	0.8829069	-0.00033566151	0
    Cl(f):	0.44221117	0.44145345	0.00075771521	0
    Cl(r):	0.44036007	0.44145345	-0.0010933767	0
    CmPitch:	0.00092554597	6.5073973e-12	0.00092554597	0
    CmRoll:	-0.44128562	-0.44145345	0.00016783075	0
    CmYaw:	1.5135603	1.5067164	0.0068439774	0
    Cs:	-1.2905384e-18	-1.2979342e-18	7.395737e-21	0
    Cs(f):	1.5135603	1.5067164	0.0068439774	0
    Cs(r):	-1.5135603	-1.5067164	-0.0068439774	0

    writing force and moment coefficient files.

Courant Number mean: 0.070003426 max: 1.1822072
deltaT = 0.020371154
Time = 17.249894

PIMPLE: iteration 1
diagonal:  Solving for rho, Initial residual = 0, Final residual = 0, No Iterations 0
smoothSolver:  Solving for Ux, Initial residual = 0.056302989, Final residual = 1.4247262e-07, No Iterations 4
smoothSolver:  Solving for Uy, Initial residual = 0.081879694, Final residual = 1.7988093e-07, No Iterations 4
smoothSolver:  Solving for e, Initial residual = 0.059338353, Final residual = 1.0084941e-07, No Iterations 4
smoothSolver:  Solving for p, Initial residual = 0.12550149, Final residual = 0.0061390949, No Iterations 1
diagonal:  Solving for rho, Initial residual = 0, Final residual = 0, No Iterations 0
time step continuity errors : sum local = 0.00028404728, global = -2.2140078e-06, cumulative = -0.0025435973
smoothSolver:  Solving for p, Initial residual = 0.0071107849, Final residual = 7.6769144e-06, No Iterations 6
diagonal:  Solving for rho, Initial residual = 0, Final residual = 0, No Iterations 0
time step continuity errors : sum local = 3.5526409e-07, global = -5.7367741e-08, cumulative = -0.0025436547
DILUPBiCGStab:  Solving for omega, Initial residual = 0.0016380944, Final residual = 5.0515039e-11, No Iterations 2
smoothSolver:  Solving for k, Initial residual = 0.00083704895, Final residual = 2.4979321e-06, No Iterations 1
ExecutionTime = 18.98 s  ClockTime = 20 s

forceCoeffs forces write:
    Coefficient	Total	Pressure	Viscous	Internal
    Cd:	2.6784038	2.664508	0.01389574	0
    Cd(f):	0.84891699	0.84190665	0.0070103421	0
    Cd(r):	1.8294868	1.8226014	0.006885398	0
    Cl:	0.98056979	0.98069474	-0.0001249441	0
    Cl(f):	0.49132047	0.49034737	0.00097310335	0
    Cl(r):	0.48924932	0.49034737	-0.0010980474	0
    CmPitch:	0.0010355754	2.392121e-11	0.0010355754	0
    CmRoll:	-0.4902849	-0.49034737	6.2472048e-05	0
    CmYaw:	1.3392019	1.332254	0.0069478701	0
    Cs:	-1.2742093e-18	-1.2808257e-18	6.6163807e-21	0
    Cs(f):	1.3392019	1.332254	0.0069478701	0
    Cs(r):	-1.3392019	-1.332254	-0.0069478701	0

    writing force and moment coefficient files.

Courant Number mean: 0.047403848 max: 0.91086166
deltaT = 0.01785783
Time = 17.267752

PIMPLE: iteration 1
diagonal:  Solving for rho, Initial residual = 0, Final residual = 0, No Iterations 0
smoothSolver:  Solving for Ux, Initial residual = 0.05018635, Final residual = 1.8219153e-07, No Iterations 4
smoothSolver:  Solving for Uy, Initial residual = 0.072943605, Final residual = 9.6633799e-08, No Iterations 4
smoothSolver:  Solving for e, Initial residual = 0.054384003, Final residual = 9.9615571e-08, No Iterations 4
smoothSolver:  Solving for p, Initial residual = 0.11159178, Final residual = 0.0036682563, No Iterations 1
diagonal:  Solving for rho, Initial residual = 0, Final residual = 0, No Iterations 0
time step continuity errors : sum local = 0.00016880306, global = -1.0710314e-05, cumulative = -0.002554365
smoothSolver:  Solving for p, Initial residual = 0.0046859989, Final residual = 9.9136825e-06, No Iterations 4
diagonal:  Solving for rho, Initial residual = 0, Final residual = 0, No Iterations 0
time step continuity errors : sum local = 4.5618862e-07, global = -6.9012844e-08, cumulative = -0.002554434
DILUPBiCGStab:  Solving for omega, Initial residual = 0.0014105131, Final residual = 1.5178343e-11, No Iterations 2
smoothSolver:  Solving for k, Initial residual = 0.00076984621, Final residual = 2.14567e-06, No Iterations 1
ExecutionTime = 19.01 s  ClockTime = 20 s

forceCoeffs forces write:
    Coefficient	Total	Pressure	Viscous	Internal
    Cd:	2.34292	2.3288129	0.014107105	0
    Cd(f):	0.64844577	0.64140655	0.0070392224	0
    Cd(r):	1.6944742	1.6874063	0.0070678825	0
    Cl:	1.0460284	1.0459998	2.8660057e-05	0
    Cl(f):	0.52417503	0.52299988	0.0011751482	0
    Cl(r):	0.52185339	0.52299988	-0.0011464882	0
    CmPitch:	0.0011608182	3.8126363e-11	0.0011608182	0
    CmRoll:	-0.52301421	-0.52299988	-1.4330028e-05	0
    CmYaw:	1.17146	1.1644064	0.0070535524	0
    Cs:	-1.2567601e-18	-1.2630003e-18	6.2401673e-21	0
    Cs(f):	1.17146	1.1644064	0.0070535524	0
    Cs(r):	-1.17146	-1.1644064	-0.0070535524	0

    writing force and moment coefficient files.

Courant Number mean: 0.041695115 max: 1.6794876
deltaT = 0.0085116759
Time = 17.276264

PIMPLE: iteration 1
diagonal:  Solving for rho, Initial residual = 0, Final residual = 0, No Iterations 0
smoothSolver:  Solving for Ux, Initial residual = 0.024601054, Final residual = 9.1212896e-06, No Iterations 2
smoothSolver:  Solving for Uy, Initial residual = 0.035725958, Final residual = 5.1810065e-06, No Iterations 2
smoothSolver:  Solving for e, Initial residual = 0.027633771, Final residual = 2.8049359e-08, No Iterations 4
smoothSolver:  Solving for p, Initial residual = 0.16982676, Final residual = 0.013483419, No Iterations 1
diagonal:  Solving for rho, Initial residual = 0, Final residual = 0, No Iterations 0
time step continuity errors : sum local = 0.0011129069, global = -0.0011002132, cumulative = -0.0036546472
smoothSolver:  Solving for p, Initial residual = 0.022901694, Final residual = 2.2568159e-06, No Iterations 2
diagonal:  Solving for rho, Initial residual = 0, Final residual = 0, No Iterations 0
time step continuity errors : sum local = 2.0316318e-07, global = -1.4819784e-07, cumulative = -0.0036547954
DILUPBiCGStab:  Solving for omega, Initial residual = 0.00069285434, Final residual = 8.9850894e-11, No Iterations 1
smoothSolver:  Solving for k, Initial residual = 0.0004851635, Final residual = 7.1553819e-06, No Iterations 1
bounding k, min: -2.0416498e-05 max: 0.0027882277 average: 6.3476735e-05
ExecutionTime = 19.03 s  ClockTime = 20 s

forceCoeffs forces write:
    Coefficient	Total	Pressure	Viscous	Internal
    Cd:	2.1697518	2.1555385	0.014213244	0
    Cd(f):	0.55074246	0.54367835	0.0070641134	0
    Cd(r):	1.6190093	1.6118602	0.0071491302	0
    Cl:	1.0682668	1.0681818	8.5016791e-05	0
    Cl(f):	0.53536242	0.53409091	0.001271511	0
    Cl(r):	0.53290441	0.53409091	-0.0011864942	0
    CmPitch:	0.0012290026	4.5266541e-11	0.0012290026	0
    CmRoll:	-0.53413341	-0.53409091	-4.2508396e-05	0
    CmYaw:	1.0848759	1.0777693	0.0071066218	0
    Cs:	-1.2469502e-18	-1.2537045e-18	6.7542959e-21	0
    Cs(f):	1.0848759	1.0777693	0.0071066218	0
    Cs(r):	-1.0848759	-1.0777693	-0.0071066218	0

    writing force and moment coefficient files.

Courant Number mean: 0.019476252 max: 2.1681547
deltaT = 0.0031415644
Time = 17.279405

PIMPLE: iteration 1
diagonal:  Solving for rho, Initial residual = 0, Final residual = 0, No Iterations 0
smoothSolver:  Solving for Ux, Initial residual = 0.011391116, Final residual = 3.3896872e-06, No Iterations 10
smoothSolver:  Solving for Uy, Initial residual = 0.014053632, Final residual = 8.5307068e-06, No Iterations 6
smoothSolver:  Solving for e, Initial residual = 0.39286434, Final residual = 1.170331e-09, No Iterations 4
