/*---------------------------------------------------------------------------*\
| =========                 |                                                 |
| \\      /  F ield         | OpenFOAM: The Open Source CFD Toolbox           |
|  \\    /   O peration     | Version:  2406                                  |
|   \\  /    A nd           | Website:  www.openfoam.com                      |
|    \\/     M anipulation  |                                                 |
\*---------------------------------------------------------------------------*/
Build  : _be01ca78-20240625 OPENFOAM=2406 version=2406
Arch   : "LSB;label=32;scalar=64"
Exec   : rhoPimpleFoam
Date   : Oct 28 2024
Time   : 10:26:06
Host   : jakub-Lenovo-ideapad-330-15ICH
PID    : 31785
I/O    : uncollated
Case   : /home/jakub/Desktop/AE4202/CFD_assignment
nProcs : 1
trapFpe: Floating point exception trapping enabled (FOAM_SIGFPE).
fileModificationChecking : Monitoring run-time modified files using timeStampMaster (fileModificationSkew 5, maxFileModificationPolls 20)
allowSystemOperations : Allowing user-supplied system call operations

// * * * * * * * * * * * * * * * * * * * * * * * * * * * * * * * * * * * * * //
Create time

Create mesh for time = 0


PIMPLE: Operating solver in PISO mode

Reading thermophysical properties

Selecting thermodynamics package 
{
    type            hePsiThermo;
    mixture         pureMixture;
    transport       sutherland;
    thermo          hConst;
    equationOfState perfectGas;
    specie          specie;
    energy          sensibleInternalEnergy;
}

Reading field U

Reading/calculating face flux field phi

Creating turbulence model

Selecting turbulence model type RAS
Selecting RAS turbulence model kOmegaSST
Selecting patchDistMethod meshWave
RAS
{
    RASModel        kOmegaSST;
    turbulence      on;
    printCoeffs     on;
    alphaK1         0.85;
    alphaK2         1;
    alphaOmega1     0.5;
    alphaOmega2     0.856;
    gamma1          0.55555556;
    gamma2          0.44;
    beta1           0.075;
    beta2           0.0828;
    betaStar        0.09;
    a1              0.31;
    b1              1;
    c1              10;
    F3              false;
    decayControl    false;
    kInf            0;
    omegaInf        0;
}

Creating field dpdt

Creating field kinetic energy K

No MRF models present

No finite volume options present
Courant Number mean: 0.024705855 max: 0.37461595

Starting time loop

fieldAverage fieldAverage1:
    Restarting averaging for fields:
        U: starting averaging at time 0
        p: starting averaging at time 0
        nut: starting averaging at time 0
        T: starting averaging at time 0

forceCoeffs forces:
    p: p
    U: U
    rho: rhoInf
    Freestream density (rhoInf) set to 1
    Not including porosity effects
    magUInf: 0.17748239
    lRef   : 1
    Aref   : 1
    rhoInf : 1
    Selecting all coefficients
    - Drag force: Cd
    - Drag force front: Cd(f)
    - Drag force rear: Cd(r)
    - Lift force: Cl
    - Lift force front: Cl(f)
    - Lift force rear: Cl(r)
    - Pitch moment: CmPitch
    - Roll moment: CmRoll
    - Yaw moment: CmYaw
    - Side force: Cs
    - Side force front: Cs(f)
    - Side force rear: Cs(r)


Sampled set:
    top -> raw
    bottom -> raw

Courant Number mean: 0.024705855 max: 0.37461595
Time = 0.005

PIMPLE: iteration 1
diagonal:  Solving for rho, Initial residual = 0, Final residual = 0, No Iterations 0
smoothSolver:  Solving for Ux, Initial residual = 0.99999988, Final residual = 1.3337229e-06, No Iterations 4
smoothSolver:  Solving for Uy, Initial residual = 1, Final residual = 6.2694421e-06, No Iterations 2
smoothSolver:  Solving for e, Initial residual = 0.99994319, Final residual = 4.1139071e-06, No Iterations 4
smoothSolver:  Solving for p, Initial residual = 1, Final residual = 0.088811736, No Iterations 7
diagonal:  Solving for rho, Initial residual = 0, Final residual = 0, No Iterations 0
time step continuity errors : sum local = 5.3453989e-06, global = -9.8194688e-07, cumulative = -9.8194688e-07
smoothSolver:  Solving for p, Initial residual = 0.075134135, Final residual = 9.7711894e-06, No Iterations 24
diagonal:  Solving for rho, Initial residual = 0, Final residual = 0, No Iterations 0
time step continuity errors : sum local = 3.2226495e-09, global = 1.2425789e-09, cumulative = -9.807043e-07
DILUPBiCGStab:  Solving for omega, Initial residual = 0.0034079691, Final residual = 4.6192525e-12, No Iterations 2
smoothSolver:  Solving for k, Initial residual = 1, Final residual = 1.3686741e-06, No Iterations 2
ExecutionTime = 2.82 s  ClockTime = 3 s

forceCoeffs forces write:
    Coefficient	Total	Pressure	Viscous	Internal
    Cd:	20.403299	20.282809	0.12049002	0
    Cd(f):	10.20692	10.146675	0.060244927	0
    Cd(r):	10.196379	10.136134	0.060245089	0
    Cl:	-0.010540596	-0.010540758	1.6180547e-07	0
    Cl(f):	-0.0052644107	-0.0052703792	5.9684293e-06	0
    Cl(r):	-0.0052761856	-0.005270379	-5.8066239e-06	0
    CmPitch:	5.8874486e-06	-7.7955672e-11	5.8875266e-06	0
    CmRoll:	0.0052702982	0.0052703791	-8.0902734e-08	0
    CmYaw:	10.201649	10.141404	0.060245008	0
    Cs:	5.775747e-19	5.8952791e-19	-1.1953205e-20	0
    Cs(f):	10.201649	10.141404	0.060245008	0
    Cs(r):	-10.201649	-10.141404	-0.060245008	0

    writing force and moment coefficient files.

Courant Number mean: 0.024632646 max: 0.3566517
Time = 0.01

PIMPLE: iteration 1
diagonal:  Solving for rho, Initial residual = 0, Final residual = 0, No Iterations 0
smoothSolver:  Solving for Ux, Initial residual = 0.022233606, Final residual = 4.6769306e-07, No Iterations 4
smoothSolver:  Solving for Uy, Initial residual = 0.33381681, Final residual = 4.837766e-06, No Iterations 4
smoothSolver:  Solving for e, Initial residual = 0.051590745, Final residual = 1.9762429e-06, No Iterations 4
smoothSolver:  Solving for p, Initial residual = 0.14681578, Final residual = 0.0099123453, No Iterations 3
diagonal:  Solving for rho, Initial residual = 0, Final residual = 0, No Iterations 0
time step continuity errors : sum local = 3.6285459e-06, global = -5.6214539e-07, cumulative = -1.5428497e-06
smoothSolver:  Solving for p, Initial residual = 0.010562305, Final residual = 7.0152687e-06, No Iterations 8
diagonal:  Solving for rho, Initial residual = 0, Final residual = 0, No Iterations 0
time step continuity errors : sum local = 3.2425695e-09, global = -5.7451373e-11, cumulative = -1.5429071e-06
DILUPBiCGStab:  Solving for omega, Initial residual = 0.0034266364, Final residual = 1.7870658e-13, No Iterations 2
smoothSolver:  Solving for k, Initial residual = 0.27879743, Final residual = 7.6330075e-08, No Iterations 2
ExecutionTime = 3.13 s  ClockTime = 3 s

forceCoeffs forces write:
    Coefficient	Total	Pressure	Viscous	Internal
    Cd:	25.953605	25.856602	0.097003701	0
    Cd(f):	12.977091	12.928588	0.048503059	0
    Cd(r):	12.976514	12.928014	0.048500642	0
    Cl:	-0.00057682318	-0.00057440634	-2.4168437e-06	0
    Cl(f):	-0.00028476074	-0.00028720306	2.4423212e-06	0
    Cl(r):	-0.00029206244	-0.00028720328	-4.859165e-06	0
    CmPitch:	3.6508528e-06	1.096713e-10	3.6507431e-06	0
    CmRoll:	0.00028841159	0.00028720317	1.2084219e-06	0
    CmYaw:	12.976803	12.928301	0.04850185	0
    Cs:	5.8760767e-19	5.9386124e-19	-6.2535729e-21	0
    Cs(f):	12.976803	12.928301	0.04850185	0
    Cs(r):	-12.976803	-12.928301	-0.04850185	0

    writing force and moment coefficient files.

Courant Number mean: 0.024563173 max: 0.34681922
Time = 0.015

PIMPLE: iteration 1
diagonal:  Solving for rho, Initial residual = 0, Final residual = 0, No Iterations 0
smoothSolver:  Solving for Ux, Initial residual = 0.012521673, Final residual = 2.0432452e-07, No Iterations 4
smoothSolver:  Solving for Uy, Initial residual = 0.22353458, Final residual = 2.5242756e-06, No Iterations 4
smoothSolver:  Solving for e, Initial residual = 0.032960144, Final residual = 5.0789405e-07, No Iterations 4
smoothSolver:  Solving for p, Initial residual = 0.12769596, Final residual = 0.0069590722, No Iterations 3
diagonal:  Solving for rho, Initial residual = 0, Final residual = 0, No Iterations 0
time step continuity errors : sum local = 3.6942636e-06, global = -4.0383369e-07, cumulative = -1.9467408e-06
smoothSolver:  Solving for p, Initial residual = 0.0082446772, Final residual = 5.4206345e-06, No Iterations 8
diagonal:  Solving for rho, Initial residual = 0, Final residual = 0, No Iterations 0
time step continuity errors : sum local = 3.2175611e-09, global = 2.9979646e-10, cumulative = -1.946441e-06
DILUPBiCGStab:  Solving for omega, Initial residual = 0.0034654716, Final residual = 1.5202297e-13, No Iterations 2
smoothSolver:  Solving for k, Initial residual = 0.14487303, Final residual = 3.8810493e-08, No Iterations 2
ExecutionTime = 3.43 s  ClockTime = 3 s

forceCoeffs forces write:
    Coefficient	Total	Pressure	Viscous	Internal
    Cd:	24.018576	23.930618	0.08795767	0
    Cd(f):	12.007059	11.963074	0.043984706	0
    Cd(r):	12.011517	11.967544	0.043972964	0
    Cl:	0.0044582065	0.0044699477	-1.1741181e-05	0
    Cl(f):	0.0022312633	0.002234974	-3.7106792e-06	0
    Cl(r):	0.0022269432	0.0022349737	-8.0305017e-06	0
    CmPitch:	2.1600684e-06	1.5721541e-10	2.1599112e-06	0
    CmRoll:	-0.0022291032	-0.0022349738	5.8705905e-06	0
    CmYaw:	12.009288	11.965309	0.043978835	0
    Cs:	5.893147e-19	5.9571116e-19	-6.3964573e-21	0
    Cs(f):	12.009288	11.965309	0.043978835	0
    Cs(r):	-12.009288	-11.965309	-0.043978835	0

    writing force and moment coefficient files.

Courant Number mean: 0.024503004 max: 0.33783932
Time = 0.02

PIMPLE: iteration 1
diagonal:  Solving for rho, Initial residual = 0, Final residual = 0, No Iterations 0
smoothSolver:  Solving for Ux, Initial residual = 0.0079857797, Final residual = 1.2596266e-07, No Iterations 4
smoothSolver:  Solving for Uy, Initial residual = 0.15415889, Final residual = 1.7002877e-06, No Iterations 4
smoothSolver:  Solving for e, Initial residual = 0.030082382, Final residual = 4.3244964e-07, No Iterations 4
smoothSolver:  Solving for p, Initial residual = 0.10627192, Final residual = 0.0051955405, No Iterations 3
diagonal:  Solving for rho, Initial residual = 0, Final residual = 0, No Iterations 0
time step continuity errors : sum local = 3.3987739e-06, global = -3.2864021e-07, cumulative = -2.2750812e-06
smoothSolver:  Solving for p, Initial residual = 0.006967724, Final residual = 9.0341361e-06, No Iterations 7
diagonal:  Solving for rho, Initial residual = 0, Final residual = 0, No Iterations 0
time step continuity errors : sum local = 6.0859924e-09, global = 5.3147446e-10, cumulative = -2.2745498e-06
DILUPBiCGStab:  Solving for omega, Initial residual = 0.003364677, Final residual = 8.7902512e-11, No Iterations 1
smoothSolver:  Solving for k, Initial residual = 0.091519715, Final residual = 9.7131167e-06, No Iterations 1
ExecutionTime = 3.72 s  ClockTime = 3 s

forceCoeffs forces write:
    Coefficient	Total	Pressure	Viscous	Internal
    Cd:	20.669424	20.581068	0.088356493	0
    Cd(f):	10.332342	10.288155	0.044187624	0
    Cd(r):	10.337082	10.292913	0.044168869	0
    Cl:	0.0047395121	0.0047582664	-1.8754305e-05	0
    Cl(f):	0.0023712558	0.0023791333	-7.8774706e-06	0
    Cl(r):	0.0023682563	0.0023791331	-1.0876834e-05	0
    CmPitch:	1.499758e-06	7.6251969e-11	1.4996818e-06	0
    CmRoll:	-0.0023697561	-0.0023791332	9.3771523e-06	0
    CmYaw:	10.334712	10.290534	0.044178246	0
    Cs:	5.9084606e-19	5.9729764e-19	-6.4515802e-21	0
    Cs(f):	10.334712	10.290534	0.044178246	0
    Cs(r):	-10.334712	-10.290534	-0.044178246	0

    writing force and moment coefficient files.

Courant Number mean: 0.024437847 max: 0.33018561
Time = 0.025

PIMPLE: iteration 1
diagonal:  Solving for rho, Initial residual = 0, Final residual = 0, No Iterations 0
smoothSolver:  Solving for Ux, Initial residual = 0.0070159495, Final residual = 9.2318674e-08, No Iterations 4
smoothSolver:  Solving for Uy, Initial residual = 0.1373085, Final residual = 1.2846817e-06, No Iterations 4
smoothSolver:  Solving for e, Initial residual = 0.026762681, Final residual = 3.5911339e-07, No Iterations 4
smoothSolver:  Solving for p, Initial residual = 0.1008579, Final residual = 0.0047766419, No Iterations 3
diagonal:  Solving for rho, Initial residual = 0, Final residual = 0, No Iterations 0
time step continuity errors : sum local = 3.4963729e-06, global = -2.2862277e-07, cumulative = -2.5031725e-06
smoothSolver:  Solving for p, Initial residual = 0.0062129296, Final residual = 5.6695927e-06, No Iterations 7
diagonal:  Solving for rho, Initial residual = 0, Final residual = 0, No Iterations 0
time step continuity errors : sum local = 4.227734e-09, global = 4.8013073e-10, cumulative = -2.5026924e-06
DILUPBiCGStab:  Solving for omega, Initial residual = 0.0032950495, Final residual = 7.149923e-11, No Iterations 1
smoothSolver:  Solving for k, Initial residual = 0.064019229, Final residual = 6.7856234e-06, No Iterations 1
ExecutionTime = 4.01 s  ClockTime = 4 s

forceCoeffs forces write:
    Coefficient	Total	Pressure	Viscous	Internal
    Cd:	19.327624	19.237406	0.090218748	0
    Cd(f):	9.6634287	9.6183084	0.045120233	0
    Cd(r):	9.6641957	9.6190972	0.045098515	0
    Cl:	0.00076700754	0.00078872562	-2.1718082e-05	0
    Cl(f):	0.00038553684	0.00039436279	-8.8259403e-06	0
    Cl(r):	0.0003814707	0.00039436284	-1.2892142e-05	0
    CmPitch:	2.0330743e-06	-2.6543564e-11	2.0331009e-06	0
    CmRoll:	-0.00038350377	-0.00039436281	1.0859041e-05	0
    CmYaw:	9.6638122	9.6187028	0.045109374	0
    Cs:	5.9062456e-19	5.9713309e-19	-6.5085317e-21	0
    Cs(f):	9.6638122	9.6187028	0.045109374	0
    Cs(r):	-9.6638122	-9.6187028	-0.045109374	0

    writing force and moment coefficient files.

Courant Number mean: 0.024372494 max: 0.32328258
Time = 0.03

PIMPLE: iteration 1
diagonal:  Solving for rho, Initial residual = 0, Final residual = 0, No Iterations 0
smoothSolver:  Solving for Ux, Initial residual = 0.0063402074, Final residual = 7.0227124e-08, No Iterations 4
smoothSolver:  Solving for Uy, Initial residual = 0.1231455, Final residual = 9.762176e-07, No Iterations 4
smoothSolver:  Solving for e, Initial residual = 0.024483547, Final residual = 2.9125413e-07, No Iterations 4
smoothSolver:  Solving for p, Initial residual = 0.10035536, Final residual = 0.0043584969, No Iterations 3
diagonal:  Solving for rho, Initial residual = 0, Final residual = 0, No Iterations 0
time step continuity errors : sum local = 3.4900868e-06, global = -1.8405087e-07, cumulative = -2.6867433e-06
smoothSolver:  Solving for p, Initial residual = 0.005790627, Final residual = 4.0134796e-06, No Iterations 7
diagonal:  Solving for rho, Initial residual = 0, Final residual = 0, No Iterations 0
time step continuity errors : sum local = 3.306775e-09, global = 3.3331183e-10, cumulative = -2.68641e-06
DILUPBiCGStab:  Solving for omega, Initial residual = 0.0032298561, Final residual = 6.0819422e-11, No Iterations 1
smoothSolver:  Solving for k, Initial residual = 0.047425793, Final residual = 5.1414286e-06, No Iterations 1
ExecutionTime = 4.3 s  ClockTime = 4 s

forceCoeffs forces write:
    Coefficient	Total	Pressure	Viscous	Internal
    Cd:	19.686494	19.596996	0.089497845	0
    Cd(f):	9.8445406	9.7997824	0.044758128	0
    Cd(r):	9.8419532	9.7972135	0.044739717	0
    Cl:	-0.0025873392	-0.0025689291	-1.8410128e-05	0
    Cl(f):	-0.0012911141	-0.0012844646	-6.6495367e-06	0
    Cl(r):	-0.0012962251	-0.0012844645	-1.1760591e-05	0
    CmPitch:	2.5554742e-06	-5.3039584e-11	2.5555272e-06	0
    CmRoll:	0.0012936696	0.0012844645	9.2050639e-06	0
    CmYaw:	9.8432469	9.798498	0.044748923	0
    Cs:	5.8940662e-19	5.9592631e-19	-6.5196847e-21	0
    Cs(f):	9.8432469	9.798498	0.044748923	0
    Cs(r):	-9.8432469	-9.798498	-0.044748923	0

    writing force and moment coefficient files.

Courant Number mean: 0.024308742 max: 0.31681138
Time = 0.035

PIMPLE: iteration 1
diagonal:  Solving for rho, Initial residual = 0, Final residual = 0, No Iterations 0
smoothSolver:  Solving for Ux, Initial residual = 0.0057445407, Final residual = 5.6486321e-08, No Iterations 4
smoothSolver:  Solving for Uy, Initial residual = 0.10874911, Final residual = 7.7592681e-07, No Iterations 4
smoothSolver:  Solving for e, Initial residual = 0.023407797, Final residual = 2.3887523e-07, No Iterations 4
smoothSolver:  Solving for p, Initial residual = 0.095286446, Final residual = 0.0038397154, No Iterations 3
diagonal:  Solving for rho, Initial residual = 0, Final residual = 0, No Iterations 0
time step continuity errors : sum local = 3.3687777e-06, global = -1.8177351e-07, cumulative = -2.8681835e-06
smoothSolver:  Solving for p, Initial residual = 0.0050623846, Final residual = 8.4695985e-06, No Iterations 6
diagonal:  Solving for rho, Initial residual = 0, Final residual = 0, No Iterations 0
time step continuity errors : sum local = 7.6670912e-09, global = 4.3717677e-10, cumulative = -2.8677463e-06
DILUPBiCGStab:  Solving for omega, Initial residual = 0.0031546478, Final residual = 5.4452981e-11, No Iterations 1
smoothSolver:  Solving for k, Initial residual = 0.036714322, Final residual = 3.9297964e-06, No Iterations 1
ExecutionTime = 4.59 s  ClockTime = 4 s

forceCoeffs forces write:
    Coefficient	Total	Pressure	Viscous	Internal
    Cd:	20.440075	20.353215	0.086860073	0
    Cd(f):	10.221209	10.17777	0.043438643	0
    Cd(r):	10.218866	10.175444	0.04342143	0
    Cl:	-0.0023429827	-0.0023257702	-1.721254e-05	0
    Cl(f):	-0.0011687164	-0.0011628851	-5.8312525e-06	0
    Cl(r):	-0.0011742664	-0.0011628851	-1.1381288e-05	0
    CmPitch:	2.7749845e-06	-3.3222324e-11	2.7750177e-06	0
    CmRoll:	0.0011714914	0.0011628851	8.6062702e-06	0
    CmYaw:	10.220037	10.176607	0.043430036	0
    Cs:	5.8838433e-19	5.9491257e-19	-6.5282429e-21	0
    Cs(f):	10.220037	10.176607	0.043430036	0
    Cs(r):	-10.220037	-10.176607	-0.043430036	0

    writing force and moment coefficient files.

Courant Number mean: 0.024244669 max: 0.31617308
Time = 0.04

PIMPLE: iteration 1
diagonal:  Solving for rho, Initial residual = 0, Final residual = 0, No Iterations 0
smoothSolver:  Solving for Ux, Initial residual = 0.0053359616, Final residual = 4.7130745e-08, No Iterations 4
smoothSolver:  Solving for Uy, Initial residual = 0.099612612, Final residual = 6.332227e-07, No Iterations 4
smoothSolver:  Solving for e, Initial residual = 0.02177098, Final residual = 1.9657897e-07, No Iterations 4
smoothSolver:  Solving for p, Initial residual = 0.089750824, Final residual = 0.0034010426, No Iterations 3
diagonal:  Solving for rho, Initial residual = 0, Final residual = 0, No Iterations 0
time step continuity errors : sum local = 3.259854e-06, global = -1.8608499e-07, cumulative = -3.0538313e-06
smoothSolver:  Solving for p, Initial residual = 0.0045122278, Final residual = 6.4082917e-06, No Iterations 6
diagonal:  Solving for rho, Initial residual = 0, Final residual = 0, No Iterations 0
time step continuity errors : sum local = 6.324689e-09, global = 2.2865722e-10, cumulative = -3.0536026e-06
DILUPBiCGStab:  Solving for omega, Initial residual = 0.0030814095, Final residual = 4.8096715e-11, No Iterations 1
smoothSolver:  Solving for k, Initial residual = 0.029468481, Final residual = 2.9945705e-06, No Iterations 1
ExecutionTime = 4.87 s  ClockTime = 5 s

forceCoeffs forces write:
    Coefficient	Total	Pressure	Viscous	Internal
    Cd:	20.669822	20.585567	0.084254998	0
    Cd(f):	10.335202	10.293066	0.042136568	0
    Cd(r):	10.33462	10.292501	0.04211843	0
    Cl:	-0.0005825253	-0.00056438663	-1.8138664e-05	0
    Cl(f):	-0.00028864968	-0.0002821933	-6.456378e-06	0
    Cl(r):	-0.00029387561	-0.00028219333	-1.1682286e-05	0
    CmPitch:	2.6129654e-06	1.1266205e-11	2.6129541e-06	0
    CmRoll:	0.00029126265	0.00028219332	9.0693322e-06	0
    CmYaw:	10.334911	10.292783	0.042127499	0
    Cs:	5.8760408e-19	5.9416316e-19	-6.5590785e-21	0
    Cs(f):	10.334911	10.292783	0.042127499	0
    Cs(r):	-10.334911	-10.292783	-0.042127499	0

    writing force and moment coefficient files.

Courant Number mean: 0.024179923 max: 0.3161781
Time = 0.045

PIMPLE: iteration 1
diagonal:  Solving for rho, Initial residual = 0, Final residual = 0, No Iterations 0
smoothSolver:  Solving for Ux, Initial residual = 0.0049967558, Final residual = 8.8458847e-06, No Iterations 2
smoothSolver:  Solving for Uy, Initial residual = 0.092047006, Final residual = 5.1499307e-07, No Iterations 4
smoothSolver:  Solving for e, Initial residual = 0.020422723, Final residual = 1.6371447e-07, No Iterations 4
smoothSolver:  Solving for p, Initial residual = 0.087440918, Final residual = 0.0030204355, No Iterations 3
diagonal:  Solving for rho, Initial residual = 0, Final residual = 0, No Iterations 0
time step continuity errors : sum local = 3.1416323e-06, global = -1.7525323e-07, cumulative = -3.2288559e-06
smoothSolver:  Solving for p, Initial residual = 0.0040470567, Final residual = 4.8968876e-06, No Iterations 6
diagonal:  Solving for rho, Initial residual = 0, Final residual = 0, No Iterations 0
time step continuity errors : sum local = 5.2121995e-09, global = 9.183873e-11, cumulative = -3.228764e-06
DILUPBiCGStab:  Solving for omega, Initial residual = 0.0030368917, Final residual = 4.3901728e-11, No Iterations 1
smoothSolver:  Solving for k, Initial residual = 0.024349773, Final residual = 2.4175237e-06, No Iterations 1
ExecutionTime = 5.16 s  ClockTime = 5 s

forceCoeffs forces write:
    Coefficient	Total	Pressure	Viscous	Internal
    Cd:	20.278151	20.195354	0.082797094	0
    Cd(f):	10.13844	10.097032	0.041408465	0
    Cd(r):	10.13971	10.098322	0.041388629	0
    Cl:	0.0012699572	0.0012897936	-1.9836469e-05	0
    Cl(f):	0.00063720957	0.00064489686	-7.6872902e-06	0
    Cl(r):	0.00063274759	0.00064489677	-1.2149179e-05	0
    CmPitch:	2.2309876e-06	4.335622e-11	2.2309442e-06	0
    CmRoll:	-0.00063497858	-0.00064489681	9.9182344e-06	0
    CmYaw:	10.139075	10.097677	0.041398547	0
    Cs:	5.8748336e-19	5.9403885e-19	-6.5554897e-21	0
    Cs(f):	10.139075	10.097677	0.041398547	0
    Cs(r):	-10.139075	-10.097677	-0.041398547	0

    writing force and moment coefficient files.

Courant Number mean: 0.024116446 max: 0.3161882
Time = 0.05

PIMPLE: iteration 1
diagonal:  Solving for rho, Initial residual = 0, Final residual = 0, No Iterations 0
smoothSolver:  Solving for Ux, Initial residual = 0.004675029, Final residual = 7.5462188e-06, No Iterations 2
smoothSolver:  Solving for Uy, Initial residual = 0.084793588, Final residual = 4.1781737e-07, No Iterations 4
smoothSolver:  Solving for e, Initial residual = 0.019655981, Final residual = 1.4061385e-07, No Iterations 4
smoothSolver:  Solving for p, Initial residual = 0.083319029, Final residual = 0.0083248726, No Iterations 2
diagonal:  Solving for rho, Initial residual = 0, Final residual = 0, No Iterations 0
time step continuity errors : sum local = 9.2989111e-06, global = -3.4333636e-07, cumulative = -3.5721004e-06
smoothSolver:  Solving for p, Initial residual = 0.0091683147, Final residual = 3.8569471e-06, No Iterations 7
diagonal:  Solving for rho, Initial residual = 0, Final residual = 0, No Iterations 0
time step continuity errors : sum local = 4.3580264e-09, global = -2.1062084e-11, cumulative = -3.5721214e-06
DILUPBiCGStab:  Solving for omega, Initial residual = 0.0030007555, Final residual = 3.9890133e-11, No Iterations 1
smoothSolver:  Solving for k, Initial residual = 0.020581396, Final residual = 2.0517629e-06, No Iterations 1
ExecutionTime = 5.44 s  ClockTime = 5 s

forceCoeffs forces write:
    Coefficient	Total	Pressure	Viscous	Internal
    Cd:	19.767198	19.684859	0.082338861	0
    Cd(f):	9.8828555	9.8416748	0.041180663	0
    Cd(r):	9.884342	9.8431838	0.041158198	0
    Cl:	0.0014865329	0.0015089975	-2.2464629e-05	0
    Cl(f):	0.00074529969	0.00075449879	-9.1991012e-06	0
    Cl(r):	0.00074123318	0.0007544987	-1.3265528e-05	0
    CmPitch:	2.0332569e-06	4.3596046e-11	2.0332133e-06	0
    CmRoll:	-0.00074326643	-0.00075449875	1.1232314e-05	0
    CmYaw:	9.8835988	9.8424293	0.041169431	0
    Cs:	5.8784948e-19	5.9440647e-19	-6.5569928e-21	0
    Cs(f):	9.8835988	9.8424293	0.041169431	0
    Cs(r):	-9.8835988	-9.8424293	-0.041169431	0

    writing force and moment coefficient files.

Courant Number mean: 0.024053225 max: 0.31620494
Time = 0.055

PIMPLE: iteration 1
diagonal:  Solving for rho, Initial residual = 0, Final residual = 0, No Iterations 0
smoothSolver:  Solving for Ux, Initial residual = 0.0044967957, Final residual = 6.8968214e-06, No Iterations 2
smoothSolver:  Solving for Uy, Initial residual = 0.079527654, Final residual = 3.5356907e-07, No Iterations 4
smoothSolver:  Solving for e, Initial residual = 0.018852957, Final residual = 1.2238778e-07, No Iterations 4
smoothSolver:  Solving for p, Initial residual = 0.081610026, Final residual = 0.0077802055, No Iterations 2
diagonal:  Solving for rho, Initial residual = 0, Final residual = 0, No Iterations 0
time step continuity errors : sum local = 9.2369239e-06, global = -2.9236717e-07, cumulative = -3.8644886e-06
smoothSolver:  Solving for p, Initial residual = 0.0085561565, Final residual = 9.0248337e-06, No Iterations 6
diagonal:  Solving for rho, Initial residual = 0, Final residual = 0, No Iterations 0
time step continuity errors : sum local = 1.0819575e-08, global = -2.8774024e-11, cumulative = -3.8645174e-06
DILUPBiCGStab:  Solving for omega, Initial residual = 0.0029721271, Final residual = 3.6481128e-11, No Iterations 1
smoothSolver:  Solving for k, Initial residual = 0.01770814, Final residual = 1.8359148e-06, No Iterations 1
ExecutionTime = 5.72 s  ClockTime = 5 s

forceCoeffs forces write:
    Coefficient	Total	Pressure	Viscous	Internal
    Cd:	19.523019	19.441006	0.082013032	0
    Cd(f):	9.7613885	9.7203706	0.041017876	0
    Cd(r):	9.76163	9.7206349	0.040995156	0
    Cl:	0.00024151921	0.00026423888	-2.2719668e-05	0
    Cl(f):	0.00012281987	0.00013211947	-9.2995973e-06	0
    Cl(r):	0.00011869934	0.00013211941	-1.3420071e-05	0
    CmPitch:	2.0602631e-06	2.6528208e-11	2.0602366e-06	0
    CmRoll:	-0.0001207596	-0.00013211944	1.1359834e-05	0
    CmYaw:	9.7615093	9.7205028	0.041006516	0
    Cs:	5.8831766e-19	5.9488547e-19	-6.5678126e-21	0
    Cs(f):	9.7615093	9.7205028	0.041006516	0
    Cs(r):	-9.7615093	-9.7205028	-0.041006516	0

    writing force and moment coefficient files.

Courant Number mean: 0.02399088 max: 0.31621991
Time = 0.06

PIMPLE: iteration 1
diagonal:  Solving for rho, Initial residual = 0, Final residual = 0, No Iterations 0
smoothSolver:  Solving for Ux, Initial residual = 0.0043312312, Final residual = 6.383834e-06, No Iterations 2
smoothSolver:  Solving for Uy, Initial residual = 0.074486, Final residual = 2.9869744e-07, No Iterations 4
smoothSolver:  Solving for e, Initial residual = 0.018242492, Final residual = 1.0300046e-07, No Iterations 4
smoothSolver:  Solving for p, Initial residual = 0.079427696, Final residual = 0.0072592216, No Iterations 2
diagonal:  Solving for rho, Initial residual = 0, Final residual = 0, No Iterations 0
time step continuity errors : sum local = 9.1044039e-06, global = -2.6442435e-07, cumulative = -4.1289417e-06
smoothSolver:  Solving for p, Initial residual = 0.007949584, Final residual = 7.4163766e-06, No Iterations 6
diagonal:  Solving for rho, Initial residual = 0, Final residual = 0, No Iterations 0
time step continuity errors : sum local = 9.3815446e-09, global = -1.5207304e-10, cumulative = -4.1290938e-06
DILUPBiCGStab:  Solving for omega, Initial residual = 0.0029417363, Final residual = 3.2932228e-11, No Iterations 1
smoothSolver:  Solving for k, Initial residual = 0.015450644, Final residual = 1.6060804e-06, No Iterations 1
ExecutionTime = 6 s  ClockTime = 6 s

forceCoeffs forces write:
    Coefficient	Total	Pressure	Viscous	Internal
    Cd:	19.467852	19.386453	0.081398797	0
    Cd(f):	9.7342548	9.6935447	0.040710166	0
    Cd(r):	9.7335968	9.6929082	0.040688631	0
    Cl:	-0.00065800289	-0.00063646776	-2.1535125e-05	0
    Cl(f):	-0.00032677591	-0.00031823388	-8.542031e-06	0
    Cl(r):	-0.00033122698	-0.00031823389	-1.2993094e-05	0
    CmPitch:	2.2255386e-06	6.930331e-12	2.2255317e-06	0
    CmRoll:	0.00032900144	0.00031823388	1.0767563e-05	0
    CmYaw:	9.7339258	9.6932264	0.040699398	0
    Cs:	5.885873e-19	5.951616e-19	-6.5743071e-21	0
    Cs(f):	9.7339258	9.6932264	0.040699398	0
    Cs(r):	-9.7339258	-9.6932264	-0.040699398	0

    writing force and moment coefficient files.

Courant Number mean: 0.023929599 max: 0.31618092
Time = 0.065

PIMPLE: iteration 1
diagonal:  Solving for rho, Initial residual = 0, Final residual = 0, No Iterations 0
smoothSolver:  Solving for Ux, Initial residual = 0.0041940628, Final residual = 5.7703859e-06, No Iterations 2
smoothSolver:  Solving for Uy, Initial residual = 0.070499729, Final residual = 2.4248383e-07, No Iterations 4
smoothSolver:  Solving for e, Initial residual = 0.017738165, Final residual = 8.4874349e-08, No Iterations 4
smoothSolver:  Solving for p, Initial residual = 0.077636714, Final residual = 0.006741464, No Iterations 2
diagonal:  Solving for rho, Initial residual = 0, Final residual = 0, No Iterations 0
time step continuity errors : sum local = 8.8926047e-06, global = -2.441486e-07, cumulative = -4.3732424e-06
smoothSolver:  Solving for p, Initial residual = 0.0074122207, Final residual = 6.1043699e-06, No Iterations 6
diagonal:  Solving for rho, Initial residual = 0, Final residual = 0, No Iterations 0
time step continuity errors : sum local = 8.1021692e-09, global = -2.8150455e-10, cumulative = -4.3735239e-06
DILUPBiCGStab:  Solving for omega, Initial residual = 0.0029088762, Final residual = 3.0252555e-11, No Iterations 1
smoothSolver:  Solving for k, Initial residual = 0.01364799, Final residual = 1.4186807e-06, No Iterations 1
ExecutionTime = 6.29 s  ClockTime = 6 s

forceCoeffs forces write:
    Coefficient	Total	Pressure	Viscous	Internal
    Cd:	19.436188	19.355528	0.080659981	0
    Cd(f):	9.7184691	9.6781287	0.040340439	0
    Cd(r):	9.7177187	9.6773992	0.040319542	0
    Cl:	-0.00075041444	-0.00072951695	-2.0897491e-05	0
    Cl(f):	-0.00037286402	-0.00036475848	-8.1055376e-06	0
    Cl(r):	-0.00037755042	-0.00036475847	-1.2791953e-05	0
    CmPitch:	2.3431982e-06	-9.7625102e-12	2.343208e-06	0
    CmRoll:	0.00037520722	0.00036475848	1.0448746e-05	0
    CmYaw:	9.7180939	9.6777639	0.04032999	0
    Cs:	5.8858942e-19	5.9517193e-19	-6.5825158e-21	0
    Cs(f):	9.7180939	9.6777639	0.04032999	0
    Cs(r):	-9.7180939	-9.6777639	-0.04032999	0

    writing force and moment coefficient files.

Courant Number mean: 0.023869502 max: 0.31593504
Time = 0.07

PIMPLE: iteration 1
diagonal:  Solving for rho, Initial residual = 0, Final residual = 0, No Iterations 0
smoothSolver:  Solving for Ux, Initial residual = 0.0040776504, Final residual = 4.9446981e-06, No Iterations 2
smoothSolver:  Solving for Uy, Initial residual = 0.067193821, Final residual = 1.8204285e-07, No Iterations 4
smoothSolver:  Solving for e, Initial residual = 0.01732057, Final residual = 6.7767725e-08, No Iterations 4
smoothSolver:  Solving for p, Initial residual = 0.076199183, Final residual = 0.006314256, No Iterations 2
diagonal:  Solving for rho, Initial residual = 0, Final residual = 0, No Iterations 0
time step continuity errors : sum local = 8.7162033e-06, global = -2.1399341e-07, cumulative = -4.5875173e-06
smoothSolver:  Solving for p, Initial residual = 0.0070177705, Final residual = 5.102089e-06, No Iterations 6
diagonal:  Solving for rho, Initial residual = 0, Final residual = 0, No Iterations 0
time step continuity errors : sum local = 7.0590466e-09, global = -4.0849552e-10, cumulative = -4.5879258e-06
DILUPBiCGStab:  Solving for omega, Initial residual = 0.0028768842, Final residual = 2.7800112e-11, No Iterations 1
smoothSolver:  Solving for k, Initial residual = 0.01218636, Final residual = 1.2928267e-06, No Iterations 1
ExecutionTime = 6.57 s  ClockTime = 6 s

forceCoeffs forces write:
    Coefficient	Total	Pressure	Viscous	Internal
    Cd:	19.346561	19.266519	0.080041779	0
    Cd(f):	9.6733616	9.6333303	0.040031299	0
    Cd(r):	9.6731997	9.6331892	0.040010481	0
    Cl:	-0.00016188691	-0.00014106916	-2.0817759e-05	0
    Cl(f):	-7.8533184e-05	-7.0534596e-05	-7.9985879e-06	0
    Cl(r):	-8.335373e-05	-7.053456e-05	-1.2819171e-05	0
    CmPitch:	2.4102733e-06	-1.8063345e-11	2.4102913e-06	0
    CmRoll:	8.0943457e-05	7.0534578e-05	1.0408879e-05	0
    CmYaw:	9.6732806	9.6332597	0.04002089	0
    Cs:	5.8844533e-19	5.9503477e-19	-6.5894427e-21	0
    Cs(f):	9.6732806	9.6332597	0.04002089	0
    Cs(r):	-9.6732806	-9.6332597	-0.04002089	0

    writing force and moment coefficient files.

Courant Number mean: 0.023809993 max: 0.31504046
Time = 0.075

PIMPLE: iteration 1
diagonal:  Solving for rho, Initial residual = 0, Final residual = 0, No Iterations 0
smoothSolver:  Solving for Ux, Initial residual = 0.0039988666, Final residual = 4.4757754e-06, No Iterations 2
smoothSolver:  Solving for Uy, Initial residual = 0.064059816, Final residual = 1.392829e-07, No Iterations 4
smoothSolver:  Solving for e, Initial residual = 0.016982562, Final residual = 5.172642e-08, No Iterations 4
smoothSolver:  Solving for p, Initial residual = 0.075772086, Final residual = 0.0059584319, No Iterations 2
diagonal:  Solving for rho, Initial residual = 0, Final residual = 0, No Iterations 0
time step continuity errors : sum local = 8.5525774e-06, global = -1.7334297e-07, cumulative = -4.7612688e-06
smoothSolver:  Solving for p, Initial residual = 0.0066260246, Final residual = 4.3784309e-06, No Iterations 6
diagonal:  Solving for rho, Initial residual = 0, Final residual = 0, No Iterations 0
time step continuity errors : sum local = 6.2674655e-09, global = -5.4578721e-10, cumulative = -4.7618146e-06
DILUPBiCGStab:  Solving for omega, Initial residual = 0.0028472905, Final residual = 2.6200355e-11, No Iterations 1
smoothSolver:  Solving for k, Initial residual = 0.010982658, Final residual = 1.176529e-06, No Iterations 1
ExecutionTime = 6.85 s  ClockTime = 7 s

forceCoeffs forces write:
    Coefficient	Total	Pressure	Viscous	Internal
    Cd:	19.21141	19.1318	0.07960942	0
    Cd(f):	9.605418	9.5656028	0.039815242	0
    Cd(r):	9.6059918	9.5661976	0.039794178	0
    Cl:	0.00057374786	0.0005948119	-2.1064034e-05	0
    Cl(f):	0.00028929754	0.00029740594	-8.1083953e-06	0
    Cl(r):	0.00028445032	0.00029740596	-1.2955639e-05	0
    CmPitch:	2.4236086e-06	-1.3157637e-11	2.4236217e-06	0
    CmRoll:	-0.00028687393	-0.00029740595	1.0532017e-05	0
    CmYaw:	9.6057049	9.5659002	0.03980471	0
    Cs:	5.882061e-19	5.9479908e-19	-6.5929815e-21	0
    Cs(f):	9.6057049	9.5659002	0.03980471	0
    Cs(r):	-9.6057049	-9.5659002	-0.03980471	0

    writing force and moment coefficient files.

Courant Number mean: 0.023752593 max: 0.3124386
Time = 0.08

PIMPLE: iteration 1
diagonal:  Solving for rho, Initial residual = 0, Final residual = 0, No Iterations 0
smoothSolver:  Solving for Ux, Initial residual = 0.0039199967, Final residual = 4.0436006e-06, No Iterations 2
smoothSolver:  Solving for Uy, Initial residual = 0.060892248, Final residual = 1.0820974e-07, No Iterations 4
smoothSolver:  Solving for e, Initial residual = 0.016640085, Final residual = 3.7952826e-08, No Iterations 4
smoothSolver:  Solving for p, Initial residual = 0.075396907, Final residual = 0.005605933, No Iterations 2
diagonal:  Solving for rho, Initial residual = 0, Final residual = 0, No Iterations 0
time step continuity errors : sum local = 8.3072811e-06, global = -1.0069933e-07, cumulative = -4.8625139e-06
smoothSolver:  Solving for p, Initial residual = 0.0058563096, Final residual = 3.6132492e-06, No Iterations 6
diagonal:  Solving for rho, Initial residual = 0, Final residual = 0, No Iterations 0
time step continuity errors : sum local = 5.7107736e-09, global = -6.2365543e-10, cumulative = -4.8631376e-06
DILUPBiCGStab:  Solving for omega, Initial residual = 0.0028197391, Final residual = 2.4121818e-11, No Iterations 1
smoothSolver:  Solving for k, Initial residual = 0.0099796773, Final residual = 1.0704041e-06, No Iterations 1
ExecutionTime = 7.13 s  ClockTime = 7 s

forceCoeffs forces write:
    Coefficient	Total	Pressure	Viscous	Internal
    Cd:	19.07303	18.99374	0.079289245	0
    Cd(f):	9.5361089	9.4964537	0.039655187	0
    Cd(r):	9.5369208	9.4972868	0.039634058	0
    Cl:	0.00081195066	0.00083307969	-2.1129035e-05	0
    Cl(f):	0.00040839928	0.00041653985	-8.1405732e-06	0
    Cl(r):	0.00040355138	0.00041653984	-1.2988462e-05	0
    CmPitch:	2.423949e-06	4.6136194e-12	2.4239443e-06	0
    CmRoll:	-0.00040597533	-0.00041653985	1.0564518e-05	0
    CmYaw:	9.5365149	9.4968702	0.039644622	0
    Cs:	5.8790621e-19	5.9450656e-19	-6.6003567e-21	0
    Cs(f):	9.5365149	9.4968702	0.039644622	0
    Cs(r):	-9.5365149	-9.4968702	-0.039644622	0

    writing force and moment coefficient files.

Courant Number mean: 0.023697581 max: 0.30592973
Time = 0.085

PIMPLE: iteration 1
diagonal:  Solving for rho, Initial residual = 0, Final residual = 0, No Iterations 0
smoothSolver:  Solving for Ux, Initial residual = 0.0038642181, Final residual = 3.3549782e-06, No Iterations 2
smoothSolver:  Solving for Uy, Initial residual = 0.058154747, Final residual = 7.6049357e-08, No Iterations 4
smoothSolver:  Solving for e, Initial residual = 0.01648514, Final residual = 2.9897735e-08, No Iterations 4
smoothSolver:  Solving for p, Initial residual = 0.069968015, Final residual = 0.0049574865, No Iterations 2
diagonal:  Solving for rho, Initial residual = 0, Final residual = 0, No Iterations 0
time step continuity errors : sum local = 8.0950986e-06, global = 1.0884734e-08, cumulative = -4.8522528e-06
smoothSolver:  Solving for p, Initial residual = 0.0052117546, Final residual = 9.71542e-06, No Iterations 5
diagonal:  Solving for rho, Initial residual = 0, Final residual = 0, No Iterations 0
time step continuity errors : sum local = 1.6998954e-08, global = -1.0769936e-09, cumulative = -4.8533298e-06
DILUPBiCGStab:  Solving for omega, Initial residual = 0.0027922223, Final residual = 2.2013689e-11, No Iterations 1
smoothSolver:  Solving for k, Initial residual = 0.0091307467, Final residual = 9.9212553e-07, No Iterations 1
ExecutionTime = 7.41 s  ClockTime = 7 s

forceCoeffs forces write:
    Coefficient	Total	Pressure	Viscous	Internal
    Cd:	18.951158	18.87216	0.07899769	0
    Cd(f):	9.4753001	9.4357907	0.039509357	0
    Cd(r):	9.475858	9.4363697	0.039488333	0
    Cl:	0.00055796994	0.00057899457	-2.102463e-05	0
    Cl(f):	0.00028144956	0.00028949731	-8.0477529e-06	0
    Cl(r):	0.00027652038	0.00028949726	-1.2976877e-05	0
    CmPitch:	2.464588e-06	2.5941675e-11	2.4645621e-06	0
    CmRoll:	-0.00027898497	-0.00028949728	1.0512315e-05	0
    CmYaw:	9.475579	9.4360802	0.039498845	0
    Cs:	5.8769175e-19	5.9429848e-19	-6.6067257e-21	0
    Cs(f):	9.475579	9.4360802	0.039498845	0
    Cs(r):	-9.475579	-9.4360802	-0.039498845	0

    writing force and moment coefficient files.

Courant Number mean: 0.023644606 max: 0.29189681
Time = 0.09

PIMPLE: iteration 1
diagonal:  Solving for rho, Initial residual = 0, Final residual = 0, No Iterations 0
smoothSolver:  Solving for Ux, Initial residual = 0.0038258649, Final residual = 3.1384006e-06, No Iterations 2
smoothSolver:  Solving for Uy, Initial residual = 0.055669771, Final residual = 6.2763705e-08, No Iterations 4
smoothSolver:  Solving for e, Initial residual = 0.016332765, Final residual = 2.4129813e-08, No Iterations 4
smoothSolver:  Solving for p, Initial residual = 0.065508949, Final residual = 0.0043378423, No Iterations 2
diagonal:  Solving for rho, Initial residual = 0, Final residual = 0, No Iterations 0
time step continuity errors : sum local = 7.8281004e-06, global = 1.2744571e-07, cumulative = -4.7258841e-06
smoothSolver:  Solving for p, Initial residual = 0.0046107385, Final residual = 8.4478239e-06, No Iterations 5
diagonal:  Solving for rho, Initial residual = 0, Final residual = 0, No Iterations 0
time step continuity errors : sum local = 1.6310617e-08, global = -8.8630301e-10, cumulative = -4.7267704e-06
DILUPBiCGStab:  Solving for omega, Initial residual = 0.002764333, Final residual = 1.908711e-11, No Iterations 1
smoothSolver:  Solving for k, Initial residual = 0.0084054495, Final residual = 9.1303262e-07, No Iterations 1
ExecutionTime = 7.69 s  ClockTime = 7 s

forceCoeffs forces write:
    Coefficient	Total	Pressure	Viscous	Internal
    Cd:	18.83853	18.759821	0.078709526	0
    Cd(f):	9.4192087	9.3798435	0.039365132	0
    Cd(r):	9.4193216	9.3799772	0.039344393	0
    Cl:	0.00011289476	0.00013363412	-2.0739361e-05	0
    Cl(f):	5.8958787e-05	6.6817099e-05	-7.8583122e-06	0
    Cl(r):	5.3935974e-05	6.6817022e-05	-1.2881048e-05	0
    CmPitch:	2.5114064e-06	3.8250186e-11	2.5113682e-06	0
    CmRoll:	-5.644738e-05	-6.681706e-05	1.036968e-05	0
    CmYaw:	9.4192651	9.3799103	0.039354763	0
    Cs:	5.8763001e-19	5.9423329e-19	-6.6032728e-21	0
    Cs(f):	9.4192651	9.3799103	0.039354763	0
    Cs(r):	-9.4192651	-9.3799103	-0.039354763	0

    writing force and moment coefficient files.

Courant Number mean: 0.02359589 max: 0.27758612
Time = 0.095

PIMPLE: iteration 1
diagonal:  Solving for rho, Initial residual = 0, Final residual = 0, No Iterations 0
smoothSolver:  Solving for Ux, Initial residual = 0.0038029221, Final residual = 2.8564654e-06, No Iterations 2
smoothSolver:  Solving for Uy, Initial residual = 0.052952628, Final residual = 5.5545301e-08, No Iterations 4
smoothSolver:  Solving for e, Initial residual = 0.016307798, Final residual = 1.797923e-08, No Iterations 4
smoothSolver:  Solving for p, Initial residual = 0.06049712, Final residual = 0.0037485613, No Iterations 2
diagonal:  Solving for rho, Initial residual = 0, Final residual = 0, No Iterations 0
time step continuity errors : sum local = 7.4508181e-06, global = 2.4201084e-07, cumulative = -4.4847596e-06
smoothSolver:  Solving for p, Initial residual = 0.0040640166, Final residual = 7.4562802e-06, No Iterations 5
diagonal:  Solving for rho, Initial residual = 0, Final residual = 0, No Iterations 0
time step continuity errors : sum local = 1.5742795e-08, global = -4.2431981e-10, cumulative = -4.4851839e-06
DILUPBiCGStab:  Solving for omega, Initial residual = 0.0027371173, Final residual = 1.6756158e-11, No Iterations 1
smoothSolver:  Solving for k, Initial residual = 0.0077816067, Final residual = 8.2898895e-07, No Iterations 1
ExecutionTime = 7.96 s  ClockTime = 8 s

forceCoeffs forces write:
    Coefficient	Total	Pressure	Viscous	Internal
    Cd:	18.720895	18.642451	0.078443601	0
    Cd(f):	9.3604475	9.3212156	0.039231876	0
    Cd(r):	9.3604475	9.3212358	0.039211725	0
    Cl:	3.2375043e-08	2.0183602e-05	-2.0151227e-05	0
    Cl(f):	2.5528592e-06	1.0091836e-05	-7.5389765e-06	0
    Cl(r):	-2.5204841e-06	1.0091766e-05	-1.2612251e-05	0
    CmPitch:	2.5366716e-06	3.4594127e-11	2.536637e-06	0
    CmRoll:	-1.6187524e-08	-1.0091801e-05	1.0075614e-05	0
    CmYaw:	9.3604475	9.3212257	0.039221801	0
    Cs:	5.8761522e-19	5.9420879e-19	-6.5935698e-21	0
    Cs(f):	9.3604475	9.3212257	0.039221801	0
    Cs(r):	-9.3604475	-9.3212257	-0.039221801	0

    writing force and moment coefficient files.

Courant Number mean: 0.0235514 max: 0.2648988
Time = 0.1

PIMPLE: iteration 1
diagonal:  Solving for rho, Initial residual = 0, Final residual = 0, No Iterations 0
smoothSolver:  Solving for Ux, Initial residual = 0.0038038455, Final residual = 2.4917602e-06, No Iterations 2
smoothSolver:  Solving for Uy, Initial residual = 0.050940408, Final residual = 5.0336038e-08, No Iterations 4
smoothSolver:  Solving for e, Initial residual = 0.016246405, Final residual = 1.7544106e-08, No Iterations 4
smoothSolver:  Solving for p, Initial residual = 0.057243884, Final residual = 0.0032203778, No Iterations 2
diagonal:  Solving for rho, Initial residual = 0, Final residual = 0, No Iterations 0
time step continuity errors : sum local = 6.9870423e-06, global = 3.0015865e-07, cumulative = -4.1850252e-06
smoothSolver:  Solving for p, Initial residual = 0.0036232766, Final residual = 6.6334645e-06, No Iterations 5
diagonal:  Solving for rho, Initial residual = 0, Final residual = 0, No Iterations 0
time step continuity errors : sum local = 1.5081642e-08, global = 1.2441576e-10, cumulative = -4.1849008e-06
DILUPBiCGStab:  Solving for omega, Initial residual = 0.0027110535, Final residual = 1.4794679e-11, No Iterations 1
smoothSolver:  Solving for k, Initial residual = 0.0072410772, Final residual = 7.60181e-07, No Iterations 1
ExecutionTime = 8.24 s  ClockTime = 8 s

forceCoeffs forces write:
    Coefficient	Total	Pressure	Viscous	Internal
    Cd:	18.587041	18.508823	0.078217956	0
    Cd(f):	9.2934022	9.2542836	0.039118612	0
    Cd(r):	9.2936392	9.2545399	0.039099345	0
    Cl:	0.00023698172	0.00025624856	-1.9266837e-05	0
    Cl(f):	0.00012100429	0.0001281243	-7.1200133e-06	0
    Cl(r):	0.00011597744	0.00012812426	-1.2146823e-05	0
    CmPitch:	2.5134231e-06	1.8059197e-11	2.513405e-06	0
    CmRoll:	-0.00011849086	-0.00012812428	9.6334184e-06	0
    CmYaw:	9.2935207	9.2544117	0.039108978	0
    Cs:	5.8748809e-19	5.9406778e-19	-6.5796971e-21	0
    Cs(f):	9.2935207	9.2544117	0.039108978	0
    Cs(r):	-9.2935207	-9.2544117	-0.039108978	0

    writing force and moment coefficient files.

Courant Number mean: 0.023510981 max: 0.2535806
Time = 0.105

PIMPLE: iteration 1
diagonal:  Solving for rho, Initial residual = 0, Final residual = 0, No Iterations 0
smoothSolver:  Solving for Ux, Initial residual = 0.0037986309, Final residual = 2.4568292e-06, No Iterations 2
smoothSolver:  Solving for Uy, Initial residual = 0.048666996, Final residual = 5.700147e-08, No Iterations 4
smoothSolver:  Solving for e, Initial residual = 0.016281569, Final residual = 1.8133963e-08, No Iterations 4
smoothSolver:  Solving for p, Initial residual = 0.054580418, Final residual = 0.002759258, No Iterations 2
diagonal:  Solving for rho, Initial residual = 0, Final residual = 0, No Iterations 0
time step continuity errors : sum local = 6.431811e-06, global = 2.4082464e-07, cumulative = -3.9440762e-06
smoothSolver:  Solving for p, Initial residual = 0.0032020161, Final residual = 5.7328887e-06, No Iterations 5
diagonal:  Solving for rho, Initial residual = 0, Final residual = 0, No Iterations 0
time step continuity errors : sum local = 1.3741383e-08, global = 3.0213362e-10, cumulative = -3.943774e-06
DILUPBiCGStab:  Solving for omega, Initial residual = 0.0026856925, Final residual = 1.3984308e-11, No Iterations 1
smoothSolver:  Solving for k, Initial residual = 0.0067694776, Final residual = 7.0385857e-07, No Iterations 1
ExecutionTime = 8.51 s  ClockTime = 8 s

forceCoeffs forces write:
    Coefficient	Total	Pressure	Viscous	Internal
    Cd:	18.436982	18.358935	0.078046391	0
    Cd(f):	9.2182429	9.1792104	0.039032498	0
    Cd(r):	9.2187389	9.179725	0.039013893	0
    Cl:	0.000496015	0.00051462059	-1.8605594e-05	0
    Cl(f):	0.00025050725	0.00025731029	-6.803046e-06	0
    Cl(r):	0.00024550775	0.0002573103	-1.1802548e-05	0
    CmPitch:	2.4997503e-06	-7.108123e-13	2.499751e-06	0
    CmRoll:	-0.0002480075	-0.0002573103	9.302797e-06	0
    CmYaw:	9.2184909	9.1794677	0.039023195	0
    Cs:	5.8717507e-19	5.937329e-19	-6.5578322e-21	0
    Cs(f):	9.2184909	9.1794677	0.039023195	0
    Cs(r):	-9.2184909	-9.1794677	-0.039023195	0

    writing force and moment coefficient files.

Courant Number mean: 0.023475459 max: 0.24402315
Time = 0.11

PIMPLE: iteration 1
diagonal:  Solving for rho, Initial residual = 0, Final residual = 0, No Iterations 0
smoothSolver:  Solving for Ux, Initial residual = 0.0038291879, Final residual = 2.2076785e-06, No Iterations 2
smoothSolver:  Solving for Uy, Initial residual = 0.046958835, Final residual = 5.4036865e-08, No Iterations 4
smoothSolver:  Solving for e, Initial residual = 0.016268, Final residual = 1.7071153e-08, No Iterations 4
smoothSolver:  Solving for p, Initial residual = 0.0532538, Final residual = 0.0023375597, No Iterations 2
diagonal:  Solving for rho, Initial residual = 0, Final residual = 0, No Iterations 0
time step continuity errors : sum local = 5.7266765e-06, global = 5.938328e-08, cumulative = -3.8843908e-06
smoothSolver:  Solving for p, Initial residual = 0.002850444, Final residual = 4.7120819e-06, No Iterations 5
diagonal:  Solving for rho, Initial residual = 0, Final residual = 0, No Iterations 0
time step continuity errors : sum local = 1.1627247e-08, global = -4.526663e-11, cumulative = -3.884436e-06
DILUPBiCGStab:  Solving for omega, Initial residual = 0.0026606917, Final residual = 1.2849903e-11, No Iterations 1
smoothSolver:  Solving for k, Initial residual = 0.0063541247, Final residual = 6.5240218e-07, No Iterations 1
ExecutionTime = 8.8 s  ClockTime = 9 s

forceCoeffs forces write:
    Coefficient	Total	Pressure	Viscous	Internal
    Cd:	18.289316	18.211388	0.077927643	0
    Cd(f):	9.1444239	9.1054507	0.038973223	0
    Cd(r):	9.1448919	9.1059375	0.03895442	0
    Cl:	0.00046806525	0.00048686828	-1.8803032e-05	0
    Cl(f):	0.00023656591	0.00024343413	-6.8682168e-06	0
    Cl(r):	0.00023149934	0.00024343415	-1.1934815e-05	0
    CmPitch:	2.533288e-06	-1.1166759e-11	2.5332992e-06	0
    CmRoll:	-0.00023403263	-0.00024343414	9.401516e-06	0
    CmYaw:	9.1446579	9.1056941	0.038963822	0
    Cs:	5.8669097e-19	5.9326089e-19	-6.5699174e-21	0
    Cs(f):	9.1446579	9.1056941	0.038963822	0
    Cs(r):	-9.1446579	-9.1056941	-0.038963822	0

    writing force and moment coefficient files.

Courant Number mean: 0.023443012 max: 0.24957247
Time = 0.115

PIMPLE: iteration 1
diagonal:  Solving for rho, Initial residual = 0, Final residual = 0, No Iterations 0
smoothSolver:  Solving for Ux, Initial residual = 0.0038610668, Final residual = 2.1738799e-06, No Iterations 2
smoothSolver:  Solving for Uy, Initial residual = 0.045492176, Final residual = 5.4225833e-08, No Iterations 4
smoothSolver:  Solving for e, Initial residual = 0.016180145, Final residual = 1.6377685e-08, No Iterations 4
smoothSolver:  Solving for p, Initial residual = 0.053346697, Final residual = 0.0020533981, No Iterations 2
diagonal:  Solving for rho, Initial residual = 0, Final residual = 0, No Iterations 0
time step continuity errors : sum local = 5.1607139e-06, global = -2.0267086e-07, cumulative = -4.0871069e-06
smoothSolver:  Solving for p, Initial residual = 0.0026164256, Final residual = 3.9988745e-06, No Iterations 5
diagonal:  Solving for rho, Initial residual = 0, Final residual = 0, No Iterations 0
time step continuity errors : sum local = 9.942138e-09, global = -6.8721992e-10, cumulative = -4.0877941e-06
DILUPBiCGStab:  Solving for omega, Initial residual = 0.0026364072, Final residual = 1.23748e-11, No Iterations 1
smoothSolver:  Solving for k, Initial residual = 0.0059878332, Final residual = 6.1327307e-07, No Iterations 1
ExecutionTime = 9.08 s  ClockTime = 9 s

forceCoeffs forces write:
    Coefficient	Total	Pressure	Viscous	Internal
    Cd:	18.164636	18.086804	0.07783152	0
    Cd(f):	9.0823463	9.0434205	0.038925721	0
    Cd(r):	9.0822895	9.0433837	0.038905799	0
    Cl:	-5.6718441e-05	-3.6797131e-05	-1.992131e-05	0
    Cl(f):	-2.5731176e-05	-1.8398574e-05	-7.3326021e-06	0
    Cl(r):	-3.0987265e-05	-1.8398557e-05	-1.2588708e-05	0
    CmPitch:	2.6280444e-06	-8.708724e-12	2.6280531e-06	0
    CmRoll:	2.835922e-05	1.8398565e-05	9.9606551e-06	0
    CmYaw:	9.0823179	9.0434021	0.03891576	0
    Cs:	5.8624992e-19	5.9282788e-19	-6.5779624e-21	0
    Cs(f):	9.0823179	9.0434021	0.03891576	0
    Cs(r):	-9.0823179	-9.0434021	-0.03891576	0

    writing force and moment coefficient files.

Courant Number mean: 0.023411544 max: 0.25525588
Time = 0.12

PIMPLE: iteration 1
diagonal:  Solving for rho, Initial residual = 0, Final residual = 0, No Iterations 0
smoothSolver:  Solving for Ux, Initial residual = 0.0038882192, Final residual = 2.1592657e-06, No Iterations 2
smoothSolver:  Solving for Uy, Initial residual = 0.044097697, Final residual = 5.3665381e-08, No Iterations 4
smoothSolver:  Solving for e, Initial residual = 0.016061101, Final residual = 1.618353e-08, No Iterations 4
smoothSolver:  Solving for p, Initial residual = 0.054779274, Final residual = 0.0020322156, No Iterations 2
diagonal:  Solving for rho, Initial residual = 0, Final residual = 0, No Iterations 0
time step continuity errors : sum local = 5.1289444e-06, global = -4.2743269e-07, cumulative = -4.5152268e-06
smoothSolver:  Solving for p, Initial residual = 0.0026852747, Final residual = 4.1523776e-06, No Iterations 5
diagonal:  Solving for rho, Initial residual = 0, Final residual = 0, No Iterations 0
time step continuity errors : sum local = 1.0254074e-08, global = -1.2975614e-09, cumulative = -4.5165244e-06
DILUPBiCGStab:  Solving for omega, Initial residual = 0.0026110803, Final residual = 1.2014045e-11, No Iterations 1
smoothSolver:  Solving for k, Initial residual = 0.0056577812, Final residual = 5.74805e-07, No Iterations 1
ExecutionTime = 9.35 s  ClockTime = 9 s

forceCoeffs forces write:
    Coefficient	Total	Pressure	Viscous	Internal
    Cd:	18.065093	17.987361	0.077732041	0
    Cd(f):	9.0329514	8.9940751	0.038876284	0
    Cd(r):	9.0321419	8.9932861	0.038855758	0
    Cl:	-0.00080949603	-0.00078896986	-2.0526165e-05	0
    Cl(f):	-0.00040197497	-0.00039448493	-7.4900477e-06	0
    Cl(r):	-0.00040752105	-0.00039448493	-1.3036117e-05	0
    CmPitch:	2.7730391e-06	4.2686345e-12	2.7730348e-06	0
    CmRoll:	0.00040474801	0.00039448493	1.0263082e-05	0
    CmYaw:	9.0325466	8.9936806	0.038866021	0
    Cs:	5.8592178e-19	5.9251741e-19	-6.5956279e-21	0
    Cs(f):	9.0325466	8.9936806	0.038866021	0
    Cs(r):	-9.0325466	-8.9936806	-0.038866021	0

    writing force and moment coefficient files.

Courant Number mean: 0.023381163 max: 0.25836767
Time = 0.125

PIMPLE: iteration 1
diagonal:  Solving for rho, Initial residual = 0, Final residual = 0, No Iterations 0
smoothSolver:  Solving for Ux, Initial residual = 0.0038865793, Final residual = 2.0713709e-06, No Iterations 2
smoothSolver:  Solving for Uy, Initial residual = 0.042699752, Final residual = 5.1480976e-08, No Iterations 4
smoothSolver:  Solving for e, Initial residual = 0.015794674, Final residual = 9.7962066e-06, No Iterations 2
smoothSolver:  Solving for p, Initial residual = 0.056172803, Final residual = 0.0020379802, No Iterations 2
diagonal:  Solving for rho, Initial residual = 0, Final residual = 0, No Iterations 0
time step continuity errors : sum local = 5.0966528e-06, global = -4.7958278e-07, cumulative = -4.9961071e-06
smoothSolver:  Solving for p, Initial residual = 0.0027353743, Final residual = 4.8570018e-06, No Iterations 5
diagonal:  Solving for rho, Initial residual = 0, Final residual = 0, No Iterations 0
time step continuity errors : sum local = 1.1859628e-08, global = -1.6686293e-09, cumulative = -4.9977758e-06
DILUPBiCGStab:  Solving for omega, Initial residual = 0.0025863206, Final residual = 1.171372e-11, No Iterations 1
smoothSolver:  Solving for k, Initial residual = 0.0053627566, Final residual = 5.44939e-07, No Iterations 1
ExecutionTime = 9.63 s  ClockTime = 9 s

forceCoeffs forces write:
    Coefficient	Total	Pressure	Viscous	Internal
    Cd:	17.97373	17.896104	0.077626367	0
    Cd(f):	8.987366	8.9485429	0.038823151	0
    Cd(r):	8.9863645	8.9475612	0.038803216	0
    Cl:	-0.0010015561	-0.000981621	-1.9935123e-05	0
    Cl(f):	-0.00049787897	-0.00049081048	-7.0684911e-06	0
    Cl(r):	-0.00050367715	-0.00049081052	-1.2866632e-05	0
    CmPitch:	2.8990911e-06	2.0710116e-11	2.8990704e-06	0
    CmRoll:	0.00050077806	0.0004908105	9.9675615e-06	0
    CmYaw:	8.9868652	8.9480521	0.038813183	0
    Cs:	5.8571892e-19	5.9232067e-19	-6.6017503e-21	0
    Cs(f):	8.9868652	8.9480521	0.038813183	0
    Cs(r):	-8.9868652	-8.9480521	-0.038813183	0

    writing force and moment coefficient files.

Courant Number mean: 0.023354165 max: 0.2562609
Time = 0.13

PIMPLE: iteration 1
diagonal:  Solving for rho, Initial residual = 0, Final residual = 0, No Iterations 0
smoothSolver:  Solving for Ux, Initial residual = 0.0039511902, Final residual = 2.128894e-06, No Iterations 2
smoothSolver:  Solving for Uy, Initial residual = 0.041888046, Final residual = 5.0414525e-08, No Iterations 4
smoothSolver:  Solving for e, Initial residual = 0.015490777, Final residual = 9.3935263e-06, No Iterations 2
smoothSolver:  Solving for p, Initial residual = 0.057929065, Final residual = 0.0018831831, No Iterations 2
diagonal:  Solving for rho, Initial residual = 0, Final residual = 0, No Iterations 0
time step continuity errors : sum local = 4.6556287e-06, global = -4.0374613e-07, cumulative = -5.4015219e-06
smoothSolver:  Solving for p, Initial residual = 0.002535288, Final residual = 4.9024843e-06, No Iterations 5
diagonal:  Solving for rho, Initial residual = 0, Final residual = 0, No Iterations 0
time step continuity errors : sum local = 1.2165234e-08, global = -1.7344045e-09, cumulative = -5.4032563e-06
DILUPBiCGStab:  Solving for omega, Initial residual = 0.0025625662, Final residual = 1.1511373e-11, No Iterations 1
smoothSolver:  Solving for k, Initial residual = 0.0050989252, Final residual = 5.1688522e-07, No Iterations 1
ExecutionTime = 9.9 s  ClockTime = 10 s

forceCoeffs forces write:
    Coefficient	Total	Pressure	Viscous	Internal
    Cd:	17.870271	17.792742	0.077528702	0
    Cd(f):	8.9353233	8.8965494	0.038773834	0
    Cd(r):	8.9349476	8.8961928	0.038754868	0
    Cl:	-0.00037562137	-0.00035665507	-1.89663e-05	0
    Cl(f):	-0.00018490989	-0.0001783275	-6.5823861e-06	0
    Cl(r):	-0.00019071148	-0.00017832757	-1.2383914e-05	0
    CmPitch:	2.9007958e-06	3.1785939e-11	2.900764e-06	0
    CmRoll:	0.00018781068	0.00017832753	9.4831501e-06	0
    CmYaw:	8.9351354	8.8963711	0.038764351	0
    Cs:	5.8562816e-19	5.9221403e-19	-6.5858637e-21	0
    Cs(f):	8.9351354	8.8963711	0.038764351	0
    Cs(r):	-8.9351354	-8.8963711	-0.038764351	0

    writing force and moment coefficient files.

Courant Number mean: 0.023330146 max: 0.25122101
Time = 0.135

PIMPLE: iteration 1
diagonal:  Solving for rho, Initial residual = 0, Final residual = 0, No Iterations 0
smoothSolver:  Solving for Ux, Initial residual = 0.0039746961, Final residual = 2.0784764e-06, No Iterations 2
smoothSolver:  Solving for Uy, Initial residual = 0.040891102, Final residual = 5.0074001e-08, No Iterations 4
smoothSolver:  Solving for e, Initial residual = 0.01522375, Final residual = 9.0593696e-06, No Iterations 2
smoothSolver:  Solving for p, Initial residual = 0.05748799, Final residual = 0.0015844416, No Iterations 2
diagonal:  Solving for rho, Initial residual = 0, Final residual = 0, No Iterations 0
time step continuity errors : sum local = 4.0228939e-06, global = -2.576424e-07, cumulative = -5.6608987e-06
smoothSolver:  Solving for p, Initial residual = 0.0021600559, Final residual = 4.2501803e-06, No Iterations 5
diagonal:  Solving for rho, Initial residual = 0, Final residual = 0, No Iterations 0
time step continuity errors : sum local = 1.1368575e-08, global = -1.2739999e-09, cumulative = -5.6621727e-06
DILUPBiCGStab:  Solving for omega, Initial residual = 0.0025404396, Final residual = 1.1561109e-11, No Iterations 1
smoothSolver:  Solving for k, Initial residual = 0.0048625743, Final residual = 4.8867709e-07, No Iterations 1
ExecutionTime = 10.18 s  ClockTime = 10 s

forceCoeffs forces write:
    Coefficient	Total	Pressure	Viscous	Internal
    Cd:	17.745041	17.667586	0.077455499	0
    Cd(f):	8.872299	8.833562	0.038737009	0
    Cd(r):	8.8727423	8.8340238	0.038718489	0
    Cl:	0.00044329115	0.00046181093	-1.8519779e-05	0
    Cl(f):	0.00022444407	0.0002309055	-6.4614233e-06	0
    Cl(r):	0.00021884708	0.00023090543	-1.2058355e-05	0
    CmPitch:	2.798498e-06	3.1981925e-11	2.798466e-06	0
    CmRoll:	-0.00022164557	-0.00023090546	9.2598893e-06	0
    CmYaw:	8.8725206	8.8337929	0.038727749	0
    Cs:	5.8560152e-19	5.9217226e-19	-6.5707446e-21	0
    Cs(f):	8.8725206	8.8337929	0.038727749	0
    Cs(r):	-8.8725206	-8.8337929	-0.038727749	0

    writing force and moment coefficient files.

Courant Number mean: 0.023304691 max: 0.24687347
Time = 0.14

PIMPLE: iteration 1
diagonal:  Solving for rho, Initial residual = 0, Final residual = 0, No Iterations 0
smoothSolver:  Solving for Ux, Initial residual = 0.0039842785, Final residual = 2.1768493e-06, No Iterations 2
smoothSolver:  Solving for Uy, Initial residual = 0.039964886, Final residual = 4.9419968e-08, No Iterations 4
smoothSolver:  Solving for e, Initial residual = 0.015031191, Final residual = 8.5765075e-06, No Iterations 2
smoothSolver:  Solving for p, Initial residual = 0.055512623, Final residual = 0.0013280464, No Iterations 2
diagonal:  Solving for rho, Initial residual = 0, Final residual = 0, No Iterations 0
time step continuity errors : sum local = 3.6246637e-06, global = -1.7382823e-07, cumulative = -5.8360009e-06
smoothSolver:  Solving for p, Initial residual = 0.0019419251, Final residual = 3.8471997e-06, No Iterations 5
diagonal:  Solving for rho, Initial residual = 0, Final residual = 0, No Iterations 0
time step continuity errors : sum local = 1.1014847e-08, global = -4.8218624e-10, cumulative = -5.8364831e-06
DILUPBiCGStab:  Solving for omega, Initial residual = 0.0025193416, Final residual = 1.1542345e-11, No Iterations 1
smoothSolver:  Solving for k, Initial residual = 0.0046479291, Final residual = 4.6362715e-07, No Iterations 1
ExecutionTime = 10.45 s  ClockTime = 10 s

forceCoeffs forces write:
    Coefficient	Total	Pressure	Viscous	Internal
    Cd:	17.600602	17.523186	0.077415853	0
    Cd(f):	8.7998733	8.761156	0.038717338	0
    Cd(r):	8.8007287	8.7620302	0.038698515	0
    Cl:	0.00085538622	0.00087420883	-1.8822613e-05	0
    Cl(f):	0.00043041309	0.00043710444	-6.691353e-06	0
    Cl(r):	0.00042497313	0.00043710439	-1.213126e-05	0
    CmPitch:	2.7199756e-06	2.1971415e-11	2.7199536e-06	0
    CmRoll:	-0.00042769311	-0.00043710442	9.4113066e-06	0
    CmYaw:	8.800301	8.7615931	0.038707927	0
    Cs:	5.8566716e-19	5.922214e-19	-6.5542407e-21	0
    Cs(f):	8.800301	8.7615931	0.038707927	0
    Cs(r):	-8.800301	-8.7615931	-0.038707927	0

    writing force and moment coefficient files.

Courant Number mean: 0.023278523 max: 0.24323103
Time = 0.145

PIMPLE: iteration 1
diagonal:  Solving for rho, Initial residual = 0, Final residual = 0, No Iterations 0
smoothSolver:  Solving for Ux, Initial residual = 0.0039445262, Final residual = 2.0289606e-06, No Iterations 2
smoothSolver:  Solving for Uy, Initial residual = 0.038595863, Final residual = 4.8486002e-08, No Iterations 4
smoothSolver:  Solving for e, Initial residual = 0.01496169, Final residual = 8.5913092e-06, No Iterations 2
smoothSolver:  Solving for p, Initial residual = 0.052573368, Final residual = 0.0012854769, No Iterations 2
diagonal:  Solving for rho, Initial residual = 0, Final residual = 0, No Iterations 0
time step continuity errors : sum local = 3.7472059e-06, global = -1.9678177e-07, cumulative = -6.0332649e-06
smoothSolver:  Solving for p, Initial residual = 0.0018877226, Final residual = 4.0366002e-06, No Iterations 5
diagonal:  Solving for rho, Initial residual = 0, Final residual = 0, No Iterations 0
time step continuity errors : sum local = 1.2315367e-08, global = 9.0957805e-11, cumulative = -6.0331739e-06
DILUPBiCGStab:  Solving for omega, Initial residual = 0.002497738, Final residual = 1.2137541e-11, No Iterations 1
smoothSolver:  Solving for k, Initial residual = 0.0044500881, Final residual = 4.5037116e-07, No Iterations 1
ExecutionTime = 10.72 s  ClockTime = 10 s

forceCoeffs forces write:
    Coefficient	Total	Pressure	Viscous	Internal
    Cd:	17.449783	17.372378	0.077404475	0
    Cd(f):	8.7245789	8.6858673	0.038711631	0
    Cd(r):	8.7252038	8.686511	0.038692844	0
    Cl:	0.00062493901	0.00064372568	-1.8786672e-05	0
    Cl(f):	0.00031520007	0.00032186285	-6.6627836e-06	0
    Cl(r):	0.00030973894	0.00032186283	-1.2123889e-05	0
    CmPitch:	2.7305612e-06	8.6408947e-12	2.7305525e-06	0
    CmRoll:	-0.00031246951	-0.00032186284	9.3933362e-06	0
    CmYaw:	8.7248914	8.6861891	0.038702238	0
    Cs:	5.8582745e-19	5.9236384e-19	-6.5363909e-21	0
    Cs(f):	8.7248914	8.6861891	0.038702238	0
    Cs(r):	-8.7248914	-8.6861891	-0.038702238	0

    writing force and moment coefficient files.

Courant Number mean: 0.023253261 max: 0.24051929
Time = 0.15

PIMPLE: iteration 1
diagonal:  Solving for rho, Initial residual = 0, Final residual = 0, No Iterations 0
smoothSolver:  Solving for Ux, Initial residual = 0.003980617, Final residual = 2.0399316e-06, No Iterations 2
smoothSolver:  Solving for Uy, Initial residual = 0.037901269, Final residual = 4.7665681e-08, No Iterations 4
smoothSolver:  Solving for e, Initial residual = 0.014703148, Final residual = 8.3349904e-06, No Iterations 2
smoothSolver:  Solving for p, Initial residual = 0.049768103, Final residual = 0.0011441885, No Iterations 2
diagonal:  Solving for rho, Initial residual = 0, Final residual = 0, No Iterations 0
time step continuity errors : sum local = 3.5504629e-06, global = -2.1953042e-07, cumulative = -6.2527043e-06
smoothSolver:  Solving for p, Initial residual = 0.0017456273, Final residual = 4.3857314e-06, No Iterations 5
diagonal:  Solving for rho, Initial residual = 0, Final residual = 0, No Iterations 0
time step continuity errors : sum local = 1.4241299e-08, global = 5.7211182e-10, cumulative = -6.2521322e-06
DILUPBiCGStab:  Solving for omega, Initial residual = 0.0024757076, Final residual = 1.2086455e-11, No Iterations 1
smoothSolver:  Solving for k, Initial residual = 0.0042682851, Final residual = 4.283429e-07, No Iterations 1
ExecutionTime = 10.99 s  ClockTime = 11 s

forceCoeffs forces write:
    Coefficient	Total	Pressure	Viscous	Internal
    Cd:	17.308128	17.230722	0.077405384	0
    Cd(f):	8.6539037	8.6151919	0.038711807	0
    Cd(r):	8.6542241	8.6155305	0.038693577	0
    Cl:	0.00032036303	0.00033859343	-1.8230396e-05	0
    Cl(f):	0.00016302143	0.00016929671	-6.2752875e-06	0
    Cl(r):	0.00015734161	0.00016929671	-1.1955108e-05	0
    CmPitch:	2.8399097e-06	-5.6638049e-13	2.8399103e-06	0
    CmRoll:	-0.00016018152	-0.00016929671	9.1151978e-06	0
    CmYaw:	8.6540639	8.6153612	0.038702692	0
    Cs:	5.8595915e-19	5.9246992e-19	-6.510769e-21	0
    Cs(f):	8.6540639	8.6153612	0.038702692	0
    Cs(r):	-8.6540639	-8.6153612	-0.038702692	0

    writing force and moment coefficient files.

Courant Number mean: 0.023231848 max: 0.24512207
Time = 0.155

PIMPLE: iteration 1
diagonal:  Solving for rho, Initial residual = 0, Final residual = 0, No Iterations 0
smoothSolver:  Solving for Ux, Initial residual = 0.0040173439, Final residual = 2.0242295e-06, No Iterations 2
smoothSolver:  Solving for Uy, Initial residual = 0.037254918, Final residual = 4.7638501e-08, No Iterations 4
smoothSolver:  Solving for e, Initial residual = 0.014411197, Final residual = 8.03961e-06, No Iterations 2
smoothSolver:  Solving for p, Initial residual = 0.047821913, Final residual = 0.00097979704, No Iterations 2
diagonal:  Solving for rho, Initial residual = 0, Final residual = 0, No Iterations 0
time step continuity errors : sum local = 3.2327983e-06, global = -2.1384263e-07, cumulative = -6.4659749e-06
smoothSolver:  Solving for p, Initial residual = 0.0015655565, Final residual = 4.5055618e-06, No Iterations 5
diagonal:  Solving for rho, Initial residual = 0, Final residual = 0, No Iterations 0
time step continuity errors : sum local = 1.5553852e-08, global = 1.0488709e-09, cumulative = -6.464926e-06
DILUPBiCGStab:  Solving for omega, Initial residual = 0.0024544279, Final residual = 1.2555295e-11, No Iterations 1
smoothSolver:  Solving for k, Initial residual = 0.0041032047, Final residual = 4.0947553e-07, No Iterations 1
ExecutionTime = 11.27 s  ClockTime = 11 s

forceCoeffs forces write:
    Coefficient	Total	Pressure	Viscous	Internal
    Cd:	17.185105	17.107705	0.077400147	0
    Cd(f):	8.5922764	8.5535677	0.03870875	0
    Cd(r):	8.5928283	8.5541369	0.038691397	0
    Cl:	0.00055184139	0.00056919415	-1.7352754e-05	0
    Cl(f):	0.00027885648	0.00028459707	-5.7405864e-06	0
    Cl(r):	0.00027298491	0.00028459707	-1.1612167e-05	0
    CmPitch:	2.9357889e-06	-1.5925759e-12	2.9357905e-06	0
    CmRoll:	-0.0002759207	-0.00028459707	8.6763769e-06	0
    CmYaw:	8.5925523	8.5538523	0.038700074	0
    Cs:	5.8592613e-19	5.9241387e-19	-6.4877468e-21	0
    Cs(f):	8.5925523	8.5538523	0.038700074	0
    Cs(r):	-8.5925523	-8.5538523	-0.038700074	0

    writing force and moment coefficient files.

Courant Number mean: 0.023215462 max: 0.2531969
Time = 0.16

PIMPLE: iteration 1
diagonal:  Solving for rho, Initial residual = 0, Final residual = 0, No Iterations 0
smoothSolver:  Solving for Ux, Initial residual = 0.0039923782, Final residual = 2.029144e-06, No Iterations 2
smoothSolver:  Solving for Uy, Initial residual = 0.036263439, Final residual = 4.6750874e-08, No Iterations 4
smoothSolver:  Solving for e, Initial residual = 0.014323042, Final residual = 7.83745e-06, No Iterations 2
smoothSolver:  Solving for p, Initial residual = 0.04634504, Final residual = 0.00088282173, No Iterations 2
diagonal:  Solving for rho, Initial residual = 0, Final residual = 0, No Iterations 0
time step continuity errors : sum local = 3.0933366e-06, global = -2.0260093e-07, cumulative = -6.6675269e-06
smoothSolver:  Solving for p, Initial residual = 0.001463327, Final residual = 4.6975627e-06, No Iterations 5
diagonal:  Solving for rho, Initial residual = 0, Final residual = 0, No Iterations 0
time step continuity errors : sum local = 1.7202953e-08, global = 1.5650316e-09, cumulative = -6.6659619e-06
DILUPBiCGStab:  Solving for omega, Initial residual = 0.002433484, Final residual = 1.2770699e-11, No Iterations 1
smoothSolver:  Solving for k, Initial residual = 0.0039524458, Final residual = 3.9002497e-07, No Iterations 1
ExecutionTime = 11.54 s  ClockTime = 11 s

forceCoeffs forces write:
    Coefficient	Total	Pressure	Viscous	Internal
    Cd:	17.078179	17.000796	0.077383842	0
    Cd(f):	8.5381933	8.499493	0.038700281	0
    Cd(r):	8.5399861	8.5013025	0.038683561	0
    Cl:	0.0017928265	0.0018095461	-1.6719601e-05	0
    Cl(f):	0.00089935943	0.00090477307	-5.4136405e-06	0
    Cl(r):	0.00089346711	0.00090477307	-1.1305961e-05	0
    CmPitch:	2.9461644e-06	4.2509372e-12	2.9461602e-06	0
    CmRoll:	-0.00089641327	-0.00090477307	8.3598007e-06	0
    CmYaw:	8.5390897	8.5003978	0.038691921	0
    Cs:	5.8564823e-19	5.9211686e-19	-6.4686302e-21	0
    Cs(f):	8.5390897	8.5003978	0.038691921	0
    Cs(r):	-8.5390897	-8.5003978	-0.038691921	0

    writing force and moment coefficient files.

Courant Number mean: 0.023200669 max: 0.25778758
Time = 0.165

PIMPLE: iteration 1
diagonal:  Solving for rho, Initial residual = 0, Final residual = 0, No Iterations 0
smoothSolver:  Solving for Ux, Initial residual = 0.0039835248, Final residual = 2.0567807e-06, No Iterations 2
smoothSolver:  Solving for Uy, Initial residual = 0.035169177, Final residual = 4.6715824e-08, No Iterations 4
smoothSolver:  Solving for e, Initial residual = 0.014181637, Final residual = 7.8645476e-06, No Iterations 2
smoothSolver:  Solving for p, Initial residual = 0.044043851, Final residual = 0.00085485138, No Iterations 2
diagonal:  Solving for rho, Initial residual = 0, Final residual = 0, No Iterations 0
time step continuity errors : sum local = 3.1742173e-06, global = -1.8567921e-07, cumulative = -6.8516411e-06
smoothSolver:  Solving for p, Initial residual = 0.0014215239, Final residual = 5.1658371e-06, No Iterations 5
diagonal:  Solving for rho, Initial residual = 0, Final residual = 0, No Iterations 0
time step continuity errors : sum local = 2.0010897e-08, global = 2.1494654e-09, cumulative = -6.8494916e-06
DILUPBiCGStab:  Solving for omega, Initial residual = 0.002413122, Final residual = 1.313267e-11, No Iterations 1
smoothSolver:  Solving for k, Initial residual = 0.0038117136, Final residual = 3.7726138e-07, No Iterations 1
ExecutionTime = 11.81 s  ClockTime = 12 s

forceCoeffs forces write:
    Coefficient	Total	Pressure	Viscous	Internal
    Cd:	16.978556	16.901195	0.077360581	0
    Cd(f):	8.4872578	8.4485693	0.038688479	0
    Cd(r):	8.4912982	8.4526261	0.038672102	0
    Cl:	0.0040403807	0.0040567571	-1.6376469e-05	0
    Cl(f):	0.0020229975	0.0020283786	-5.3810549e-06	0
    Cl(r):	0.0020173831	0.0020283786	-1.0995414e-05	0
    CmPitch:	2.8071917e-06	1.2236527e-11	2.8071795e-06	0
    CmRoll:	-0.0020201903	-0.0020283786	8.1882344e-06	0
    CmYaw:	8.489278	8.4505977	0.03868029	0
    Cs:	5.8520211e-19	5.9166148e-19	-6.4593706e-21	0
    Cs(f):	8.489278	8.4505977	0.03868029	0
    Cs(r):	-8.489278	-8.4505977	-0.03868029	0

    writing force and moment coefficient files.

Courant Number mean: 0.023187422 max: 0.25913526
Time = 0.17

PIMPLE: iteration 1
diagonal:  Solving for rho, Initial residual = 0, Final residual = 0, No Iterations 0
smoothSolver:  Solving for Ux, Initial residual = 0.0040349786, Final residual = 2.0969229e-06, No Iterations 2
smoothSolver:  Solving for Uy, Initial residual = 0.03455036, Final residual = 4.720327e-08, No Iterations 4
smoothSolver:  Solving for e, Initial residual = 0.013935043, Final residual = 7.7130555e-06, No Iterations 2
smoothSolver:  Solving for p, Initial residual = 0.041738505, Final residual = 0.00078229912, No Iterations 2
diagonal:  Solving for rho, Initial residual = 0, Final residual = 0, No Iterations 0
time step continuity errors : sum local = 3.0697986e-06, global = -1.593333e-07, cumulative = -7.0088249e-06
smoothSolver:  Solving for p, Initial residual = 0.001336134, Final residual = 5.7103323e-06, No Iterations 5
diagonal:  Solving for rho, Initial residual = 0, Final residual = 0, No Iterations 0
time step continuity errors : sum local = 2.3328858e-08, global = 2.8435929e-09, cumulative = -7.0059813e-06
DILUPBiCGStab:  Solving for omega, Initial residual = 0.0023935037, Final residual = 1.3297815e-11, No Iterations 1
smoothSolver:  Solving for k, Initial residual = 0.0036827495, Final residual = 3.6259545e-07, No Iterations 1
ExecutionTime = 12.09 s  ClockTime = 12 s

forceCoeffs forces write:
    Coefficient	Total	Pressure	Viscous	Internal
    Cd:	16.875425	16.798088	0.077336935	0
    Cd(f):	8.4341561	8.3954794	0.038676724	0
    Cd(r):	8.4412687	8.4026085	0.038660212	0
    Cl:	0.0071126408	0.0071291527	-1.6511938e-05	0
    Cl(f):	0.0035588638	0.0035645764	-5.7126091e-06	0
    Cl(r):	0.003553777	0.0035645763	-1.0799329e-05	0
    CmPitch:	2.5433778e-06	1.7931644e-11	2.5433598e-06	0
    CmRoll:	-0.0035563204	-0.0035645763	8.2559689e-06	0
    CmYaw:	8.4377124	8.3990439	0.038668468	0
    Cs:	5.8475784e-19	5.9121192e-19	-6.4540869e-21	0
    Cs(f):	8.4377124	8.3990439	0.038668468	0
    Cs(r):	-8.4377124	-8.3990439	-0.038668468	0

    writing force and moment coefficient files.

Courant Number mean: 0.0231743 max: 0.25826327
Time = 0.175

PIMPLE: iteration 1
diagonal:  Solving for rho, Initial residual = 0, Final residual = 0, No Iterations 0
smoothSolver:  Solving for Ux, Initial residual = 0.0040305208, Final residual = 2.113886e-06, No Iterations 2
smoothSolver:  Solving for Uy, Initial residual = 0.033825152, Final residual = 4.6817218e-08, No Iterations 4
smoothSolver:  Solving for e, Initial residual = 0.013640347, Final residual = 7.5676184e-06, No Iterations 2
smoothSolver:  Solving for p, Initial residual = 0.040592702, Final residual = 0.0040512285, No Iterations 1
diagonal:  Solving for rho, Initial residual = 0, Final residual = 0, No Iterations 0
time step continuity errors : sum local = 1.675138e-05, global = -1.0739565e-06, cumulative = -8.0799378e-06
smoothSolver:  Solving for p, Initial residual = 0.0042239036, Final residual = 6.1506362e-06, No Iterations 6
diagonal:  Solving for rho, Initial residual = 0, Final residual = 0, No Iterations 0
time step continuity errors : sum local = 2.6274203e-08, global = 3.4548668e-09, cumulative = -8.076483e-06
DILUPBiCGStab:  Solving for omega, Initial residual = 0.002374617, Final residual = 1.3262814e-11, No Iterations 1
smoothSolver:  Solving for k, Initial residual = 0.003564032, Final residual = 3.4951058e-07, No Iterations 1
ExecutionTime = 12.36 s  ClockTime = 12 s

forceCoeffs forces write:
    Coefficient	Total	Pressure	Viscous	Internal
    Cd:	16.760565	16.683243	0.077321935	0
    Cd(f):	8.3749983	8.336329	0.038669312	0
    Cd(r):	8.3855669	8.3469143	0.038652623	0
    Cl:	0.01056859	0.010585279	-1.668961e-05	0
    Cl(f):	0.0052864735	0.0052926398	-6.1662927e-06	0
    Cl(r):	0.0052821164	0.0052926397	-1.0523317e-05	0
    CmPitch:	2.1785313e-06	1.8931903e-11	2.1785124e-06	0
    CmRoll:	-0.0052842949	-0.0052926397	8.3448051e-06	0
    CmYaw:	8.3802826	8.3416216	0.038660968	0
    Cs:	5.8451153e-19	5.9096368e-19	-6.4521458e-21	0
    Cs(f):	8.3802826	8.3416216	0.038660968	0
    Cs(r):	-8.3802826	-8.3416216	-0.038660968	0

    writing force and moment coefficient files.

Courant Number mean: 0.023162243 max: 0.25600717
Time = 0.18

PIMPLE: iteration 1
diagonal:  Solving for rho, Initial residual = 0, Final residual = 0, No Iterations 0
smoothSolver:  Solving for Ux, Initial residual = 0.0040111011, Final residual = 2.1071525e-06, No Iterations 2
smoothSolver:  Solving for Uy, Initial residual = 0.032971855, Final residual = 4.6245999e-08, No Iterations 4
smoothSolver:  Solving for e, Initial residual = 0.013515821, Final residual = 7.6216889e-06, No Iterations 2
smoothSolver:  Solving for p, Initial residual = 0.039256028, Final residual = 0.0038064249, No Iterations 1
diagonal:  Solving for rho, Initial residual = 0, Final residual = 0, No Iterations 0
time step continuity errors : sum local = 1.6545373e-05, global = -1.1212338e-06, cumulative = -9.1977168e-06
smoothSolver:  Solving for p, Initial residual = 0.0039931492, Final residual = 6.5535477e-06, No Iterations 6
diagonal:  Solving for rho, Initial residual = 0, Final residual = 0, No Iterations 0
time step continuity errors : sum local = 2.9392304e-08, global = 4.1720443e-09, cumulative = -9.1935448e-06
DILUPBiCGStab:  Solving for omega, Initial residual = 0.0023568292, Final residual = 1.3171689e-11, No Iterations 1
smoothSolver:  Solving for k, Initial residual = 0.0034542002, Final residual = 3.365866e-07, No Iterations 1
ExecutionTime = 12.64 s  ClockTime = 12 s

forceCoeffs forces write:
    Coefficient	Total	Pressure	Viscous	Internal
    Cd:	16.633061	16.555737	0.077323943	0
    Cd(f):	8.3095239	8.270854	0.038669911	0
    Cd(r):	8.3235368	8.2848828	0.038654032	0
    Cl:	0.014012939	0.014028818	-1.5878711e-05	0
    Cl(f):	0.0070082534	0.0070144089	-6.1555399e-06	0
    Cl(r):	0.0070046857	0.0070144089	-9.7231713e-06	0
    CmPitch:	1.7838321e-06	1.6335475e-11	1.7838157e-06	0
    CmRoll:	-0.0070064695	-0.0070144089	7.9393556e-06	0
    CmYaw:	8.3165304	8.2778684	0.038661971	0
    Cs:	5.84549e-19	5.9099943e-19	-6.4504267e-21	0
    Cs(f):	8.3165304	8.2778684	0.038661971	0
    Cs(r):	-8.3165304	-8.2778684	-0.038661971	0

    writing force and moment coefficient files.

Courant Number mean: 0.023150308 max: 0.25662569
Time = 0.185

PIMPLE: iteration 1
diagonal:  Solving for rho, Initial residual = 0, Final residual = 0, No Iterations 0
smoothSolver:  Solving for Ux, Initial residual = 0.0040283614, Final residual = 2.1289845e-06, No Iterations 2
smoothSolver:  Solving for Uy, Initial residual = 0.032210249, Final residual = 4.6427812e-08, No Iterations 4
smoothSolver:  Solving for e, Initial residual = 0.013432386, Final residual = 7.6272285e-06, No Iterations 2
smoothSolver:  Solving for p, Initial residual = 0.037566511, Final residual = 0.0036076132, No Iterations 1
diagonal:  Solving for rho, Initial residual = 0, Final residual = 0, No Iterations 0
time step continuity errors : sum local = 1.6454476e-05, global = -1.1656118e-06, cumulative = -1.0359157e-05
smoothSolver:  Solving for p, Initial residual = 0.0038092727, Final residual = 6.9348285e-06, No Iterations 6
diagonal:  Solving for rho, Initial residual = 0, Final residual = 0, No Iterations 0
time step continuity errors : sum local = 3.2597885e-08, global = 4.78273e-09, cumulative = -1.0354374e-05
[...]
ExecutionTime = 120.4 s  ClockTime = 120 s

forceCoeffs forces write:
    Coefficient	Total	Pressure	Viscous	Internal
    Cd:	2.2974767	2.2405702	0.056906512	0
    Cd(f):	5.1968889	5.1623171	0.034571857	0
    Cd(r):	-2.8994122	-2.9217469	0.022334655	0
    Cl:	-8.0963011	-8.0840639	-0.012237202	0
    Cl(f):	-4.045337	-4.042032	-0.0033050281	0
    Cl(r):	-4.0509641	-4.042032	-0.0089321735	0
    CmPitch:	0.0028135708	-1.9409733e-09	0.0028135727	0
    CmRoll:	4.0481506	4.042032	0.0061186008	0
    CmYaw:	1.1487384	1.1202851	0.028453256	0
    Cs:	4.4008168e-19	4.4436314e-19	-4.2814563e-21	0
    Cs(f):	1.1487384	1.1202851	0.028453256	0
    Cs(r):	-1.1487384	-1.1202851	-0.028453256	0

    writing force and moment coefficient files.

Courant Number mean: 0.026110985 max: 1.5777019
Time = 1.965

PIMPLE: iteration 1
diagonal:  Solving for rho, Initial residual = 0, Final residual = 0, No Iterations 0
smoothSolver:  Solving for Ux, Initial residual = 0.013978042, Final residual = 5.1993249e-06, No Iterations 6
smoothSolver:  Solving for Uy, Initial residual = 0.017979875, Final residual = 3.9013137e-06, No Iterations 6
smoothSolver:  Solving for e, Initial residual = 0.0081661077, Final residual = 2.2254417e-06, No Iterations 4
smoothSolver:  Solving for p, Initial residual = 0.018794317, Final residual = 0.0017094455, No Iterations 1
diagonal:  Solving for rho, Initial residual = 0, Final residual = 0, No Iterations 0
time step continuity errors : sum local = 7.7843372e-05, global = -1.0612165e-05, cumulative = -0.00056078259
smoothSolver:  Solving for p, Initial residual = 0.0018888905, Final residual = 7.002309e-06, No Iterations 5
diagonal:  Solving for rho, Initial residual = 0, Final residual = 0, No Iterations 0
time step continuity errors : sum local = 3.1928951e-07, global = -1.0798416e-07, cumulative = -0.00056089057
DILUPBiCGStab:  Solving for omega, Initial residual = 0.00085160169, Final residual = 3.1122509e-11, No Iterations 2
smoothSolver:  Solving for k, Initial residual = 0.0021453601, Final residual = 7.0846826e-06, No Iterations 2
ExecutionTime = 120.75 s  ClockTime = 121 s

forceCoeffs forces write:
    Coefficient	Total	Pressure	Viscous	Internal
    Cd:	2.6539831	2.5978672	0.056115894	0
    Cd(f):	6.2686774	6.2345222	0.034155208	0
    Cd(r):	-3.6146943	-3.636655	0.021960686	0
    Cl:	-9.8833717	-9.8711771	-0.012194522	0
    Cl(f):	-4.9385253	-4.9355886	-0.0029366809	0
    Cl(r):	-4.9448464	-4.9355886	-0.0092578409	0
    CmPitch:	0.0031605783	-1.6191712e-09	0.00316058	0
    CmRoll:	4.9416858	4.9355886	0.0060972609	0
    CmYaw:	1.3269915	1.2989336	0.028057947	0
    Cs:	4.8851556e-19	4.9299486e-19	-4.4793022e-21	0
    Cs(f):	1.3269915	1.2989336	0.028057947	0
    Cs(r):	-1.3269915	-1.2989336	-0.028057947	0

    writing force and moment coefficient files.

Courant Number mean: 0.026125442 max: 1.528402
Time = 1.97

PIMPLE: iteration 1
diagonal:  Solving for rho, Initial residual = 0, Final residual = 0, No Iterations 0
smoothSolver:  Solving for Ux, Initial residual = 0.014143948, Final residual = 7.6076274e-06, No Iterations 4
smoothSolver:  Solving for Uy, Initial residual = 0.018126697, Final residual = 2.1822416e-06, No Iterations 6
smoothSolver:  Solving for e, Initial residual = 0.0080747141, Final residual = 2.4598021e-06, No Iterations 4
smoothSolver:  Solving for p, Initial residual = 0.018745868, Final residual = 0.0017138149, No Iterations 1
diagonal:  Solving for rho, Initial residual = 0, Final residual = 0, No Iterations 0
time step continuity errors : sum local = 7.8610245e-05, global = -1.0968842e-05, cumulative = -0.00057185942
smoothSolver:  Solving for p, Initial residual = 0.0018996933, Final residual = 7.6487192e-06, No Iterations 5
diagonal:  Solving for rho, Initial residual = 0, Final residual = 0, No Iterations 0
time step continuity errors : sum local = 3.5144684e-07, global = -1.2902269e-07, cumulative = -0.00057198844
DILUPBiCGStab:  Solving for omega, Initial residual = 0.00084090798, Final residual = 2.1290646e-11, No Iterations 2
smoothSolver:  Solving for k, Initial residual = 0.0021598314, Final residual = 5.4289277e-06, No Iterations 2
ExecutionTime = 121.07 s  ClockTime = 121 s

forceCoeffs forces write:
    Coefficient	Total	Pressure	Viscous	Internal
    Cd:	2.9193134	2.8638988	0.055414594	0
    Cd(f):	7.0440915	7.0103489	0.033742572	0
    Cd(r):	-4.1247781	-4.1464501	0.021672021	0
    Cl:	-11.16887	-11.156799	-0.012070551	0
    Cl(f):	-5.5809647	-5.5783995	-0.002565166	0
    Cl(r):	-5.5879049	-5.5783995	-0.0095053853	0
    CmPitch:	0.003470109	-6.8140783e-10	0.0034701097	0
    CmRoll:	5.5844348	5.5783995	0.0060352756	0
    CmYaw:	1.4596567	1.4319494	0.027707297	0
    Cs:	5.4955461e-19	5.5414624e-19	-4.5916304e-21	0
    Cs(f):	1.4596567	1.4319494	0.027707297	0
    Cs(r):	-1.4596567	-1.4319494	-0.027707297	0

    writing force and moment coefficient files.

Courant Number mean: 0.026159648 max: 1.4912346
Time = 1.975

PIMPLE: iteration 1
diagonal:  Solving for rho, Initial residual = 0, Final residual = 0, No Iterations 0
smoothSolver:  Solving for Ux, Initial residual = 0.014294162, Final residual = 7.5016234e-06, No Iterations 4
smoothSolver:  Solving for Uy, Initial residual = 0.018226897, Final residual = 8.8104456e-06, No Iterations 4
smoothSolver:  Solving for e, Initial residual = 0.0080567839, Final residual = 3.7547146e-06, No Iterations 4
smoothSolver:  Solving for p, Initial residual = 0.019019399, Final residual = 0.0017741708, No Iterations 1
diagonal:  Solving for rho, Initial residual = 0, Final residual = 0, No Iterations 0
time step continuity errors : sum local = 8.2010773e-05, global = -1.1959131e-05, cumulative = -0.00058394757
smoothSolver:  Solving for p, Initial residual = 0.0019690212, Final residual = 8.0084229e-06, No Iterations 5
diagonal:  Solving for rho, Initial residual = 0, Final residual = 0, No Iterations 0
time step continuity errors : sum local = 3.7087477e-07, global = -1.3757059e-07, cumulative = -0.00058408514
DILUPBiCGStab:  Solving for omega, Initial residual = 0.00088464518, Final residual = 9.1136978e-11, No Iterations 2
smoothSolver:  Solving for k, Initial residual = 0.0023469161, Final residual = 4.9389343e-06, No Iterations 2
ExecutionTime = 121.38 s  ClockTime = 121 s

forceCoeffs forces write:
    Coefficient	Total	Pressure	Viscous	Internal
    Cd:	3.0875041	3.032609	0.054895078	0
    Cd(f):	7.4728841	7.4395179	0.033366185	0
    Cd(r):	-4.38538	-4.4069089	0.021528893	0
    Cl:	-11.858264	-11.846427	-0.011837292	0
    Cl(f):	-5.9254417	-5.9232134	-0.0022283259	0
    Cl(r):	-5.9328224	-5.9232134	-0.009608966	0
    CmPitch:	0.0036903204	3.2076459e-10	0.0036903201	0
    CmRoll:	5.929132	5.9232134	0.0059186459	0
    CmYaw:	1.543752	1.5163045	0.027447539	0
    Cs:	5.7133713e-19	5.75777e-19	-4.4398683e-21	0
    Cs(f):	1.543752	1.5163045	0.027447539	0
    Cs(r):	-1.543752	-1.5163045	-0.027447539	0

    writing force and moment coefficient files.

Courant Number mean: 0.026194135 max: 1.4451215
Time = 1.98

PIMPLE: iteration 1
diagonal:  Solving for rho, Initial residual = 0, Final residual = 0, No Iterations 0
smoothSolver:  Solving for Ux, Initial residual = 0.014440779, Final residual = 6.8892711e-06, No Iterations 4
smoothSolver:  Solving for Uy, Initial residual = 0.018313518, Final residual = 1.7775617e-06, No Iterations 6
smoothSolver:  Solving for e, Initial residual = 0.0081105543, Final residual = 3.1458159e-06, No Iterations 4
smoothSolver:  Solving for p, Initial residual = 0.019175032, Final residual = 0.0018024973, No Iterations 1
diagonal:  Solving for rho, Initial residual = 0, Final residual = 0, No Iterations 0
time step continuity errors : sum local = 8.4043804e-05, global = -1.3234623e-05, cumulative = -0.00059731976
smoothSolver:  Solving for p, Initial residual = 0.0020085032, Final residual = 7.7981928e-06, No Iterations 5
diagonal:  Solving for rho, Initial residual = 0, Final residual = 0, No Iterations 0
time step continuity errors : sum local = 3.6416742e-07, global = -1.3112274e-07, cumulative = -0.00059745089
DILUPBiCGStab:  Solving for omega, Initial residual = 0.00092395267, Final residual = 2.3073292e-12, No Iterations 3
smoothSolver:  Solving for k, Initial residual = 0.0025803945, Final residual = 5.5743185e-06, No Iterations 2
ExecutionTime = 121.69 s  ClockTime = 122 s

forceCoeffs forces write:
    Coefficient	Total	Pressure	Viscous	Internal
    Cd:	3.1309791	3.0763971	0.054581972	0
    Cd(f):	7.4434374	7.4105128	0.032924697	0
    Cd(r):	-4.3124584	-4.3341156	0.021657275	0
    Cl:	-11.755896	-11.744628	-0.011267422	0
    Cl(f):	-5.8741726	-5.8723142	-0.0018584438	0
    Cl(r):	-5.8817232	-5.8723142	-0.0094089778	0
    CmPitch:	0.0037752681	1.1589343e-09	0.003775267	0
    CmRoll:	5.8779479	5.8723142	0.0056337108	0
    CmYaw:	1.5654895	1.5381986	0.027290986	0
    Cs:	5.3443373e-19	5.3854475e-19	-4.1110288e-21	0
    Cs(f):	1.5654895	1.5381986	0.027290986	0
    Cs(r):	-1.5654895	-1.5381986	-0.027290986	0

    writing force and moment coefficient files.

Courant Number mean: 0.026196967 max: 1.5890502
Time = 1.985

PIMPLE: iteration 1
diagonal:  Solving for rho, Initial residual = 0, Final residual = 0, No Iterations 0
smoothSolver:  Solving for Ux, Initial residual = 0.014608364, Final residual = 5.4144897e-06, No Iterations 4
smoothSolver:  Solving for Uy, Initial residual = 0.018565115, Final residual = 8.3501174e-06, No Iterations 4
smoothSolver:  Solving for e, Initial residual = 0.0081119247, Final residual = 2.5323158e-06, No Iterations 4
smoothSolver:  Solving for p, Initial residual = 0.019030986, Final residual = 0.0017523645, No Iterations 1
diagonal:  Solving for rho, Initial residual = 0, Final residual = 0, No Iterations 0
time step continuity errors : sum local = 8.2444527e-05, global = -1.4091242e-05, cumulative = -0.00061154213
smoothSolver:  Solving for p, Initial residual = 0.0019704224, Final residual = 6.9526355e-06, No Iterations 5
diagonal:  Solving for rho, Initial residual = 0, Final residual = 0, No Iterations 0
time step continuity errors : sum local = 3.2745219e-07, global = -1.1269551e-07, cumulative = -0.00061165482
DILUPBiCGStab:  Solving for omega, Initial residual = 0.000935451, Final residual = 5.8878251e-11, No Iterations 2
smoothSolver:  Solving for k, Initial residual = 0.0027988593, Final residual = 6.7079642e-06, No Iterations 2
ExecutionTime = 121.98 s  ClockTime = 122 s

forceCoeffs forces write:
    Coefficient	Total	Pressure	Viscous	Internal
    Cd:	2.9832539	2.928565	0.054688874	0
    Cd(f):	6.7519791	6.7195784	0.032400672	0
    Cd(r):	-3.7687252	-3.7910134	0.022288202	0
    Cl:	-10.520704	-10.510592	-0.01011247	0
    Cl(f):	-5.2567594	-5.2552959	-0.0014635212	0
    Cl(r):	-5.2639449	-5.2552959	-0.0086489484	0
    CmPitch:	0.0035927153	1.6954915e-09	0.0035927136	0
    CmRoll:	5.2603521	5.2552959	0.0050562348	0
    CmYaw:	1.4916269	1.4642825	0.027344437	0
    Cs:	4.7725362e-19	4.811672e-19	-3.913579e-21	0
    Cs(f):	1.4916269	1.4642825	0.027344437	0
    Cs(r):	-1.4916269	-1.4642825	-0.027344437	0

    writing force and moment coefficient files.

Courant Number mean: 0.026181807 max: 1.7194699
Time = 1.99

PIMPLE: iteration 1
diagonal:  Solving for rho, Initial residual = 0, Final residual = 0, No Iterations 0
smoothSolver:  Solving for Ux, Initial residual = 0.014791629, Final residual = 5.0479421e-06, No Iterations 4
smoothSolver:  Solving for Uy, Initial residual = 0.019076052, Final residual = 9.1291358e-06, No Iterations 4
smoothSolver:  Solving for e, Initial residual = 0.007989393, Final residual = 2.4204758e-06, No Iterations 4
smoothSolver:  Solving for p, Initial residual = 0.018778321, Final residual = 0.0016777443, No Iterations 1
diagonal:  Solving for rho, Initial residual = 0, Final residual = 0, No Iterations 0
time step continuity errors : sum local = 7.9632888e-05, global = -1.3933288e-05, cumulative = -0.00062558811
smoothSolver:  Solving for p, Initial residual = 0.0019009431, Final residual = 5.9416372e-06, No Iterations 5
diagonal:  Solving for rho, Initial residual = 0, Final residual = 0, No Iterations 0
time step continuity errors : sum local = 2.8237432e-07, global = -9.7242308e-08, cumulative = -0.00062568535
DILUPBiCGStab:  Solving for omega, Initial residual = 0.00091494227, Final residual = 1.6163838e-11, No Iterations 2
smoothSolver:  Solving for k, Initial residual = 0.0030138821, Final residual = 7.0735255e-06, No Iterations 2
ExecutionTime = 122.27 s  ClockTime = 122 s

forceCoeffs forces write:
    Coefficient	Total	Pressure	Viscous	Internal
    Cd:	2.5999561	2.5443596	0.055596494	0
    Cd(f):	5.3061458	5.2739339	0.032211926	0
    Cd(r):	-2.7061898	-2.7295743	0.023384568	0
    Cl:	-8.0123356	-8.0035082	-0.0088273578	0
    Cl(f):	-4.0031829	-4.0017541	-0.0014288246	0
    Cl(r):	-4.0091527	-4.0017541	-0.0073985332	0
    CmPitch:	0.0029848559	1.6374517e-09	0.0029848543	0
    CmRoll:	4.0061678	4.0017541	0.0044136789	0
    CmYaw:	1.299978	1.2721798	0.027798247	0
    Cs:	4.440542e-19	4.4778482e-19	-3.7306198e-21	0
    Cs(f):	1.299978	1.2721798	0.027798247	0
    Cs(r):	-1.299978	-1.2721798	-0.027798247	0

    writing force and moment coefficient files.

Courant Number mean: 0.026172639 max: 1.7466347
Time = 1.995

PIMPLE: iteration 1
diagonal:  Solving for rho, Initial residual = 0, Final residual = 0, No Iterations 0
smoothSolver:  Solving for Ux, Initial residual = 0.014928864, Final residual = 5.0724323e-06, No Iterations 4
smoothSolver:  Solving for Uy, Initial residual = 0.019476558, Final residual = 3.1733317e-06, No Iterations 6
smoothSolver:  Solving for e, Initial residual = 0.0078330766, Final residual = 2.4779022e-06, No Iterations 4
smoothSolver:  Solving for p, Initial residual = 0.018590332, Final residual = 0.0016288683, No Iterations 1
diagonal:  Solving for rho, Initial residual = 0, Final residual = 0, No Iterations 0
time step continuity errors : sum local = 7.7974389e-05, global = -1.3730426e-05, cumulative = -0.00063941578
smoothSolver:  Solving for p, Initial residual = 0.0018669209, Final residual = 5.529185e-06, No Iterations 5
diagonal:  Solving for rho, Initial residual = 0, Final residual = 0, No Iterations 0
time step continuity errors : sum local = 2.6511735e-07, global = -8.6837282e-08, cumulative = -0.00063950262
DILUPBiCGStab:  Solving for omega, Initial residual = 0.00088094596, Final residual = 6.8903555e-12, No Iterations 2
smoothSolver:  Solving for k, Initial residual = 0.0029962322, Final residual = 6.9685058e-06, No Iterations 2
ExecutionTime = 122.57 s  ClockTime = 122 s

forceCoeffs forces write:
    Coefficient	Total	Pressure	Viscous	Internal
    Cd:	2.1094892	2.0524358	0.057053381	0
    Cd(f):	3.6078938	3.5749676	0.032926179	0
    Cd(r):	-1.4984046	-1.5225318	0.024127203	0
    Cl:	-5.1062984	-5.0974995	-0.0087989762	0
    Cl(f):	-2.5509467	-2.5487497	-0.0021969316	0
    Cl(r):	-2.5553518	-2.5487497	-0.0066020446	0
    CmPitch:	0.0022025576	1.0911393e-09	0.0022025565	0
    CmRoll:	2.5531492	2.5487497	0.0043994881	0
    CmYaw:	1.0547446	1.0262179	0.028526691	0
    Cs:	4.3254409e-19	4.3618116e-19	-3.6370658e-21	0
    Cs(f):	1.0547446	1.0262179	0.028526691	0
    Cs(r):	-1.0547446	-1.0262179	-0.028526691	0

    writing force and moment coefficient files.

Courant Number mean: 0.026199957 max: 1.6545942
Time = 2

PIMPLE: iteration 1
diagonal:  Solving for rho, Initial residual = 0, Final residual = 0, No Iterations 0
smoothSolver:  Solving for Ux, Initial residual = 0.014996543, Final residual = 3.3375814e-06, No Iterations 4
smoothSolver:  Solving for Uy, Initial residual = 0.019416722, Final residual = 6.9703081e-06, No Iterations 4
smoothSolver:  Solving for e, Initial residual = 0.0077243663, Final residual = 1.8290372e-06, No Iterations 4
smoothSolver:  Solving for p, Initial residual = 0.018802345, Final residual = 0.0016862452, No Iterations 1
diagonal:  Solving for rho, Initial residual = 0, Final residual = 0, No Iterations 0
time step continuity errors : sum local = 8.1378838e-05, global = -1.4258205e-05, cumulative = -0.00065376082
smoothSolver:  Solving for p, Initial residual = 0.0019514637, Final residual = 6.0152123e-06, No Iterations 5
diagonal:  Solving for rho, Initial residual = 0, Final residual = 0, No Iterations 0
time step continuity errors : sum local = 2.908497e-07, global = -8.5392082e-08, cumulative = -0.00065384621
DILUPBiCGStab:  Solving for omega, Initial residual = 0.00092791877, Final residual = 4.7430297e-11, No Iterations 2
smoothSolver:  Solving for k, Initial residual = 0.0032987122, Final residual = 8.4333761e-06, No Iterations 2
ExecutionTime = 122.87 s  ClockTime = 123 s

forceCoeffs forces write:
    Coefficient	Total	Pressure	Viscous	Internal
    Cd:	1.8635786	1.8056139	0.057964709	0
    Cd(f):	2.7796212	2.7454171	0.034204175	0
    Cd(r):	-0.91604265	-0.93980319	0.023760535	0
    Cl:	-3.6956639	-3.6852202	-0.01044364	0
    Cl(f):	-1.845987	-1.8426101	-0.0033769203	0
    Cl(r):	-1.8496768	-1.8426101	-0.0070667197	0
    CmPitch:	0.001844901	1.3633745e-09	0.0018448997	0
    CmRoll:	1.8478319	1.8426101	0.00522182	0
    CmYaw:	0.93178929	0.90280693	0.028982355	0
    Cs:	4.112976e-19	4.1462475e-19	-3.3271568e-21	0
    Cs(f):	0.93178929	0.90280693	0.028982355	0
    Cs(r):	-0.93178929	-0.90280693	-0.028982355	0

    writing force and moment coefficient files.

Courant Number mean: 0.026267776 max: 1.6656292
Time = 2.005

PIMPLE: iteration 1
diagonal:  Solving for rho, Initial residual = 0, Final residual = 0, No Iterations 0
smoothSolver:  Solving for Ux, Initial residual = 0.015039131, Final residual = 4.0481018e-06, No Iterations 4
smoothSolver:  Solving for Uy, Initial residual = 0.018779726, Final residual = 1.9385515e-06, No Iterations 6
smoothSolver:  Solving for e, Initial residual = 0.0078293155, Final residual = 2.042902e-06, No Iterations 4
smoothSolver:  Solving for p, Initial residual = 0.01930103, Final residual = 0.0018025419, No Iterations 1
diagonal:  Solving for rho, Initial residual = 0, Final residual = 0, No Iterations 0
time step continuity errors : sum local = 8.7730104e-05, global = -1.58761e-05, cumulative = -0.00066972231
smoothSolver:  Solving for p, Initial residual = 0.0020996254, Final residual = 6.8171026e-06, No Iterations 5
diagonal:  Solving for rho, Initial residual = 0, Final residual = 0, No Iterations 0
time step continuity errors : sum local = 3.3231914e-07, global = -8.7000922e-08, cumulative = -0.00066980932
DILUPBiCGStab:  Solving for omega, Initial residual = 0.0010150988, Final residual = 1.203269e-11, No Iterations 3
smoothSolver:  Solving for k, Initial residual = 0.0036591533, Final residual = 5.4597282e-06, No Iterations 3
ExecutionTime = 123.17 s  ClockTime = 123 s

forceCoeffs forces write:
    Coefficient	Total	Pressure	Viscous	Internal
    Cd:	2.096231	2.0388189	0.057412045	0
    Cd(f):	3.4504028	3.4155631	0.034839708	0
    Cd(r):	-1.3541719	-1.3767442	0.022572336	0
    Cl:	-4.8045747	-4.7923073	-0.012267372	0
    Cl(f):	-2.4000612	-2.3961537	-0.0039075086	0
    Cl(r):	-2.4045135	-2.3961537	-0.0083598635	0
    CmPitch:	0.0022261792	1.8205628e-09	0.0022261774	0
    CmRoll:	2.4022873	2.3961537	0.0061336861	0
    CmYaw:	1.0481155	1.0194095	0.028706022	0
    Cs:	3.8440857e-19	3.8753039e-19	-3.1218279e-21	0
    Cs(f):	1.0481155	1.0194095	0.028706022	0
    Cs(r):	-1.0481155	-1.0194095	-0.028706022	0

    writing force and moment coefficient files.

Courant Number mean: 0.02632496 max: 2.0044739
Time = 2.01

PIMPLE: iteration 1
diagonal:  Solving for rho, Initial residual = 0, Final residual = 0, No Iterations 0
smoothSolver:  Solving for Ux, Initial residual = 0.015177167, Final residual = 3.2277854e+30, No Iterations 1000
smoothSolver:  Solving for Uy, Initial residual = 0.018128742, Final residual = 2.672644e+30, No Iterations 1000
smoothSolver:  Solving for e, Initial residual = 1, Final residual = 3.7462029e-06, No Iterations 20
