/*---------------------------------------------------------------------------*\
| =========                 |                                                 |
| \\      /  F ield         | OpenFOAM: The Open Source CFD Toolbox           |
|  \\    /   O peration     | Version:  2406                                  |
|   \\  /    A nd           | Website:  www.openfoam.com                      |
|    \\/     M anipulation  |                                                 |
\*---------------------------------------------------------------------------*/
Build  : _be01ca78-20240625 OPENFOAM=2406 version=2406
Arch   : "LSB;label=32;scalar=64"
Exec   : rhoPimpleFoam
Date   : Oct 27 2024
Time   : 22:14:22
Host   : jakub-Lenovo-ideapad-330-15ICH
PID    : 49145
I/O    : uncollated
Case   : /home/jakub/AE4202/CFD_assignment
nProcs : 1
trapFpe: Floating point exception trapping enabled (FOAM_SIGFPE).
fileModificationChecking : Monitoring run-time modified files using timeStampMaster (fileModificationSkew 5, maxFileModificationPolls 20)
allowSystemOperations : Allowing user-supplied system call operations

// * * * * * * * * * * * * * * * * * * * * * * * * * * * * * * * * * * * * * //
Create time

Create mesh for time = 0


PIMPLE: Operating solver in PISO mode

Reading thermophysical properties

Selecting thermodynamics package 
{
    type            hePsiThermo;
    mixture         pureMixture;
    transport       sutherland;
    thermo          hConst;
    equationOfState perfectGas;
    specie          specie;
    energy          sensibleInternalEnergy;
}

Reading field U

Reading/calculating face flux field phi

Creating turbulence model

Selecting turbulence model type RAS
Selecting RAS turbulence model SpalartAllmaras
Selecting patchDistMethod meshWave
ft2 term: inactive
RAS
{
    RASModel        SpalartAllmaras;
    turbulence      on;
    printCoeffs     on;
    sigmaNut        0.66666;
    kappa           0.41;
    Cb1             0.1355;
    Cb2             0.622;
    Cw2             0.3;
    Cw3             2;
    Cv1             7.1;
    Cs              0.3;
    ck              0.07;
    ft2             false;
    Ct3             1.2;
    Ct4             0.5;
}

Creating field dpdt

Creating field kinetic energy K

No MRF models present

No finite volume options present
Courant Number mean: 0.016194567 max: 0.1926769

Starting time loop

fieldAverage fieldAverage1:
    Restarting averaging for fields:
        U: starting averaging at time 0
        p: starting averaging at time 0
        nut: starting averaging at time 0
        T: starting averaging at time 0

forceCoeffs forces:
    p: p
    U: U
    rho: rhoInf
    Freestream density (rhoInf) set to 1
    Not including porosity effects
    magUInf: 0.15
    lRef   : 1
    Aref   : 1
    rhoInf : 1
    Selecting all coefficients
    - Drag force: Cd
    - Drag force front: Cd(f)
    - Drag force rear: Cd(r)
    - Lift force: Cl
    - Lift force front: Cl(f)
    - Lift force rear: Cl(r)
    - Pitch moment: CmPitch
    - Roll moment: CmRoll
    - Yaw moment: CmYaw
    - Side force: Cs
    - Side force front: Cs(f)
    - Side force rear: Cs(r)


Sampled set:
    top -> raw
    bottom -> raw

Courant Number mean: 0.016194567 max: 0.1926769
Time = 0.005

PIMPLE: iteration 1
diagonal:  Solving for rho, Initial residual = 0, Final residual = 0, No Iterations 0
smoothSolver:  Solving for Ux, Initial residual = 0.99999709, Final residual = 1.6705481e-06, No Iterations 4
smoothSolver:  Solving for Uy, Initial residual = 1, Final residual = 5.0348617e-06, No Iterations 4
smoothSolver:  Solving for e, Initial residual = 0.99978085, Final residual = 7.0279634e-07, No Iterations 4
smoothSolver:  Solving for p, Initial residual = 1, Final residual = 0.049127678, No Iterations 3
diagonal:  Solving for rho, Initial residual = 0, Final residual = 0, No Iterations 0
time step continuity errors : sum local = 7.8450226e-07, global = -7.2674969e-08, cumulative = -7.2674969e-08
smoothSolver:  Solving for p, Initial residual = 0.031487342, Final residual = 5.27399e-06, No Iterations 9
diagonal:  Solving for rho, Initial residual = 0, Final residual = 0, No Iterations 0
time step continuity errors : sum local = 2.6634519e-10, global = 1.0566721e-10, cumulative = -7.2569302e-08
smoothSolver:  Solving for nuTilda, Initial residual = 0.99999993, Final residual = 1.1521381e-07, No Iterations 2
ExecutionTime = 3.77 s  ClockTime = 4 s

forceCoeffs forces write:
    Coefficient	Total	Pressure	Viscous	Internal
    Cd:	20.122858	20.038898	0.083959453	0
    Cd(f):	10.061419	10.019439	0.041979668	0
    Cd(r):	10.061439	10.019459	0.041979785	0
    Cl:	1.9702145e-05	1.9584395e-05	1.1774947e-07	0
    Cl(f):	9.8506229e-06	9.7921976e-06	5.8425308e-08	0
    Cl(r):	9.8515217e-06	9.7921976e-06	5.9324159e-08	0
    CmPitch:	-4.4942739e-10	-1.4504216e-15	-4.4942594e-10	0
    CmRoll:	-9.8510723e-06	-9.7921976e-06	-5.8874734e-08	0
    CmYaw:	10.061429	10.019449	0.041979727	0
    Cs:	3.8484405e-19	3.0075662e-19	8.4087426e-20	0
    Cs(f):	10.061429	10.019449	0.041979727	0
    Cs(r):	-10.061429	-10.019449	-0.041979727	0

    writing force and moment coefficient files.

Courant Number mean: 0.016181758 max: 0.17293493
Time = 0.01

PIMPLE: iteration 1
diagonal:  Solving for rho, Initial residual = 0, Final residual = 0, No Iterations 0
smoothSolver:  Solving for Ux, Initial residual = 0.027117509, Final residual = 2.3667085e-08, No Iterations 4
smoothSolver:  Solving for Uy, Initial residual = 0.33538736, Final residual = 2.6797089e-07, No Iterations 4
smoothSolver:  Solving for e, Initial residual = 0.1065401, Final residual = 9.8457722e-08, No Iterations 4
smoothSolver:  Solving for p, Initial residual = 0.23930534, Final residual = 0.0054791029, No Iterations 2
diagonal:  Solving for rho, Initial residual = 0, Final residual = 0, No Iterations 0
time step continuity errors : sum local = 3.4342619e-07, global = -3.0432903e-08, cumulative = -1.0300221e-07
smoothSolver:  Solving for p, Initial residual = 0.0052017903, Final residual = 3.019263e-06, No Iterations 4
diagonal:  Solving for rho, Initial residual = 0, Final residual = 0, No Iterations 0
time step continuity errors : sum local = 2.4521449e-10, global = 3.706471e-11, cumulative = -1.0296514e-07
smoothSolver:  Solving for nuTilda, Initial residual = 0.067933633, Final residual = 4.4818694e-06, No Iterations 1
ExecutionTime = 4.13 s  ClockTime = 4 s

forceCoeffs forces write:
    Coefficient	Total	Pressure	Viscous	Internal
    Cd:	30.205885	30.13342	0.07246502	0
    Cd(f):	15.102925	15.066692	0.036232453	0
    Cd(r):	15.10296	15.066728	0.036232567	0
    Cl:	3.5683435e-05	3.5568803e-05	1.1463264e-07	0
    Cl(f):	1.7840761e-05	1.7784401e-05	5.6359323e-08	0
    Cl(r):	1.7842675e-05	1.7784401e-05	5.8273318e-08	0
    CmPitch:	-9.5700086e-10	-3.3947575e-15	-9.5699747e-10	0
    CmRoll:	-1.7841718e-05	-1.7784401e-05	-5.7316321e-08	0
    CmYaw:	15.102942	15.06671	0.03623251	0
    Cs:	3.5486831e-19	3.0150835e-19	5.335996e-20	0
    Cs(f):	15.102942	15.06671	0.03623251	0
    Cs(r):	-15.102942	-15.06671	-0.03623251	0

    writing force and moment coefficient files.

Courant Number mean: 0.016169722 max: 0.16525545
Time = 0.015

PIMPLE: iteration 1
diagonal:  Solving for rho, Initial residual = 0, Final residual = 0, No Iterations 0
smoothSolver:  Solving for Ux, Initial residual = 0.017302031, Final residual = 1.3829166e-08, No Iterations 4
smoothSolver:  Solving for Uy, Initial residual = 0.24133433, Final residual = 1.7134343e-07, No Iterations 4
smoothSolver:  Solving for e, Initial residual = 0.061257113, Final residual = 7.1544769e-08, No Iterations 4
smoothSolver:  Solving for p, Initial residual = 0.1628671, Final residual = 0.0039474998, No Iterations 2
diagonal:  Solving for rho, Initial residual = 0, Final residual = 0, No Iterations 0
time step continuity errors : sum local = 3.8261448e-07, global = -2.2323739e-08, cumulative = -1.2528888e-07
smoothSolver:  Solving for p, Initial residual = 0.0039854576, Final residual = 2.2630254e-06, No Iterations 4
diagonal:  Solving for rho, Initial residual = 0, Final residual = 0, No Iterations 0
time step continuity errors : sum local = 2.5601777e-10, global = 6.7681544e-11, cumulative = -1.252212e-07
smoothSolver:  Solving for nuTilda, Initial residual = 0.033953517, Final residual = 2.0421533e-06, No Iterations 1
ExecutionTime = 4.48 s  ClockTime = 5 s

forceCoeffs forces write:
    Coefficient	Total	Pressure	Viscous	Internal
    Cd:	32.176727	32.11278	0.063947655	0
    Cd(f):	16.088351	16.056377	0.031973788	0
    Cd(r):	16.088376	16.056402	0.031973867	0
    Cl:	2.4771678e-05	2.4692041e-05	7.9636773e-08	0
    Cl(f):	1.2384687e-05	1.234602e-05	3.8666287e-08	0
    Cl(r):	1.2386991e-05	1.234602e-05	4.0970486e-08	0
    CmPitch:	-1.1520992e-09	5.2523572e-16	-1.1520998e-09	0
    CmRoll:	-1.2385839e-05	-1.234602e-05	-3.9818387e-08	0
    CmYaw:	16.088364	16.05639	0.031973827	0
    Cs:	3.3258687e-19	3.0248127e-19	3.0105608e-20	0
    Cs(f):	16.088364	16.05639	0.031973827	0
    Cs(r):	-16.088364	-16.05639	-0.031973827	0

    writing force and moment coefficient files.

Courant Number mean: 0.01615711 max: 0.15837296
Time = 0.02

PIMPLE: iteration 1
diagonal:  Solving for rho, Initial residual = 0, Final residual = 0, No Iterations 0
smoothSolver:  Solving for Ux, Initial residual = 0.011758524, Final residual = 7.2280446e-06, No Iterations 2
smoothSolver:  Solving for Uy, Initial residual = 0.17573338, Final residual = 9.8547656e-08, No Iterations 4
smoothSolver:  Solving for e, Initial residual = 0.045297092, Final residual = 4.1160677e-08, No Iterations 4
smoothSolver:  Solving for p, Initial residual = 0.15804663, Final residual = 0.0028207628, No Iterations 2
diagonal:  Solving for rho, Initial residual = 0, Final residual = 0, No Iterations 0
time step continuity errors : sum local = 3.6180966e-07, global = -1.5492259e-08, cumulative = -1.4071346e-07
smoothSolver:  Solving for p, Initial residual = 0.0031070483, Final residual = 9.5675662e-06, No Iterations 3
diagonal:  Solving for rho, Initial residual = 0, Final residual = 0, No Iterations 0
time step continuity errors : sum local = 1.3479159e-09, global = 2.7186633e-10, cumulative = -1.4044159e-07
smoothSolver:  Solving for nuTilda, Initial residual = 0.022426608, Final residual = 1.297416e-06, No Iterations 1
ExecutionTime = 4.87 s  ClockTime = 5 s

forceCoeffs forces write:
    Coefficient	Total	Pressure	Viscous	Internal
    Cd:	28.89528	28.835626	0.059653847	0
    Cd(f):	14.447646	14.417819	0.029826894	0
    Cd(r):	14.447634	14.417807	0.029826953	0
    Cl:	-1.2543948e-05	-1.2602178e-05	5.8230767e-08	0
    Cl(f):	-6.2705974e-06	-6.3010892e-06	3.0491818e-08	0
    Cl(r):	-6.2733503e-06	-6.3010892e-06	2.773895e-08	0
    CmPitch:	1.3764421e-09	8.2471645e-15	1.3764339e-09	0
    CmRoll:	6.2719738e-06	6.3010892e-06	-2.9115384e-08	0
    CmYaw:	14.44764	14.417813	0.029826923	0
    Cs:	3.2084705e-19	3.0328495e-19	1.7562105e-20	0
    Cs(f):	14.44764	14.417813	0.029826923	0
    Cs(r):	-14.44764	-14.417813	-0.029826923	0

    writing force and moment coefficient files.

Courant Number mean: 0.016147042 max: 0.1529184
Time = 0.025

PIMPLE: iteration 1
diagonal:  Solving for rho, Initial residual = 0, Final residual = 0, No Iterations 0
smoothSolver:  Solving for Ux, Initial residual = 0.0081571768, Final residual = 4.9661559e-06, No Iterations 2
smoothSolver:  Solving for Uy, Initial residual = 0.12695644, Final residual = 6.4509065e-08, No Iterations 4
smoothSolver:  Solving for e, Initial residual = 0.044868779, Final residual = 2.9537257e-08, No Iterations 4
smoothSolver:  Solving for p, Initial residual = 0.134619, Final residual = 0.0019696162, No Iterations 2
diagonal:  Solving for rho, Initial residual = 0, Final residual = 0, No Iterations 0
time step continuity errors : sum local = 3.0676891e-07, global = -8.4386941e-09, cumulative = -1.4888028e-07
smoothSolver:  Solving for p, Initial residual = 0.0023881066, Final residual = 5.589266e-06, No Iterations 3
diagonal:  Solving for rho, Initial residual = 0, Final residual = 0, No Iterations 0
time step continuity errors : sum local = 9.1389054e-10, global = 2.1443907e-10, cumulative = -1.4866585e-07
smoothSolver:  Solving for nuTilda, Initial residual = 0.016708495, Final residual = 9.1260704e-07, No Iterations 1
ExecutionTime = 5.22 s  ClockTime = 6 s

forceCoeffs forces write:
    Coefficient	Total	Pressure	Viscous	Internal
    Cd:	24.404716	24.3456	0.059115514	0
    Cd(f):	12.202376	12.172818	0.02955773	0
    Cd(r):	12.20234	12.172782	0.029557785	0
    Cl:	-3.5555207e-05	-3.5610204e-05	5.499741e-08	0
    Cl(f):	-1.7774849e-05	-1.7805102e-05	3.0253202e-08	0
    Cl(r):	-1.7780358e-05	-1.7805102e-05	2.4744209e-08	0
    CmPitch:	2.7545083e-09	1.1933452e-14	2.7544964e-09	0
    CmRoll:	1.7777604e-05	1.7805102e-05	-2.7498705e-08	0
    CmYaw:	12.202358	12.1728	0.029557757	0
    Cs:	3.1775007e-19	3.0390318e-19	1.3846892e-20	0
    Cs(f):	12.202358	12.1728	0.029557757	0
    Cs(r):	-12.202358	-12.1728	-0.029557757	0

    writing force and moment coefficient files.

Courant Number mean: 0.016135143 max: 0.15212884
Time = 0.03

PIMPLE: iteration 1
diagonal:  Solving for rho, Initial residual = 0, Final residual = 0, No Iterations 0
smoothSolver:  Solving for Ux, Initial residual = 0.0075452127, Final residual = 4.0983348e-06, No Iterations 2
smoothSolver:  Solving for Uy, Initial residual = 0.11240683, Final residual = 4.8944869e-08, No Iterations 4
smoothSolver:  Solving for e, Initial residual = 0.03973155, Final residual = 2.2965205e-08, No Iterations 4
smoothSolver:  Solving for p, Initial residual = 0.12078003, Final residual = 0.0016698773, No Iterations 2
diagonal:  Solving for rho, Initial residual = 0, Final residual = 0, No Iterations 0
time step continuity errors : sum local = 2.9753613e-07, global = -4.299986e-09, cumulative = -1.5296583e-07
smoothSolver:  Solving for p, Initial residual = 0.0021232274, Final residual = 2.9546037e-06, No Iterations 3
diagonal:  Solving for rho, Initial residual = 0, Final residual = 0, No Iterations 0
time step continuity errors : sum local = 5.4164432e-10, global = 1.4881128e-10, cumulative = -1.5281702e-07
smoothSolver:  Solving for nuTilda, Initial residual = 0.013303934, Final residual = 7.0627796e-07, No Iterations 1
ExecutionTime = 5.55 s  ClockTime = 6 s

forceCoeffs forces write:
    Coefficient	Total	Pressure	Viscous	Internal
    Cd:	21.910209	21.849924	0.060285457	0
    Cd(f):	10.955123	10.92498	0.030142701	0
    Cd(r):	10.955086	10.924944	0.030142756	0
    Cl:	-3.6315399e-05	-3.636974e-05	5.4340551e-08	0
    Cl(f):	-1.8155427e-05	-1.818487e-05	2.9442675e-08	0
    Cl(r):	-1.8159972e-05	-1.818487e-05	2.4897876e-08	0
    CmPitch:	2.2724068e-09	7.4183522e-15	2.2723994e-09	0
    CmRoll:	1.81577e-05	1.818487e-05	-2.7170275e-08	0
    CmYaw:	10.955105	10.924962	0.030142728	0
    Cs:	3.0894761e-19	3.0428532e-19	4.6622922e-21	0
    Cs(f):	10.955105	10.924962	0.030142728	0
    Cs(r):	-10.955105	-10.924962	-0.030142728	0

    writing force and moment coefficient files.

Courant Number mean: 0.016123112 max: 0.15212904
Time = 0.035

PIMPLE: iteration 1
diagonal:  Solving for rho, Initial residual = 0, Final residual = 0, No Iterations 0
smoothSolver:  Solving for Ux, Initial residual = 0.0073438351, Final residual = 3.1205102e-06, No Iterations 2
smoothSolver:  Solving for Uy, Initial residual = 0.10727758, Final residual = 3.5924396e-08, No Iterations 4
smoothSolver:  Solving for e, Initial residual = 0.036906616, Final residual = 1.8177893e-08, No Iterations 4
smoothSolver:  Solving for p, Initial residual = 0.11795795, Final residual = 0.0014965758, No Iterations 2
diagonal:  Solving for rho, Initial residual = 0, Final residual = 0, No Iterations 0
time step continuity errors : sum local = 2.9630597e-07, global = -1.0994231e-09, cumulative = -1.5391644e-07
smoothSolver:  Solving for p, Initial residual = 0.0019692773, Final residual = 2.6547212e-06, No Iterations 3
diagonal:  Solving for rho, Initial residual = 0, Final residual = 0, No Iterations 0
time step continuity errors : sum local = 5.6730842e-10, global = 8.7296818e-11, cumulative = -1.5382915e-07
smoothSolver:  Solving for nuTilda, Initial residual = 0.011039842, Final residual = 5.6978519e-07, No Iterations 1
ExecutionTime = 5.9 s  ClockTime = 6 s

forceCoeffs forces write:
    Coefficient	Total	Pressure	Viscous	Internal
    Cd:	21.806533	21.74553	0.061003134	0
    Cd(f):	10.903285	10.872784	0.030501539	0
    Cd(r):	10.903248	10.872746	0.030501595	0
    Cl:	-3.768026e-05	-3.7736355e-05	5.609521e-08	0
    Cl(f):	-1.883825e-05	-1.8868177e-05	2.9927514e-08	0
    Cl(r):	-1.884201e-05	-1.8868177e-05	2.6167696e-08	0
    CmPitch:	1.8799103e-09	1.6576247e-15	1.8799087e-09	0
    CmRoll:	1.884013e-05	1.8868177e-05	-2.8047605e-08	0
    CmYaw:	10.903266	10.872765	0.030501567	0
    Cs:	3.0417124e-19	3.0407801e-19	9.3226159e-23	0
    Cs(f):	10.903266	10.872765	0.030501567	0
    Cs(r):	-10.903266	-10.872765	-0.030501567	0

    writing force and moment coefficient files.

Courant Number mean: 0.016112174 max: 0.15212944
Time = 0.04

PIMPLE: iteration 1
diagonal:  Solving for rho, Initial residual = 0, Final residual = 0, No Iterations 0
smoothSolver:  Solving for Ux, Initial residual = 0.0068603468, Final residual = 2.8861319e-06, No Iterations 2
smoothSolver:  Solving for Uy, Initial residual = 0.096547498, Final residual = 2.9116495e-08, No Iterations 4
smoothSolver:  Solving for e, Initial residual = 0.034697825, Final residual = 1.45823e-08, No Iterations 4
smoothSolver:  Solving for p, Initial residual = 0.10800366, Final residual = 0.010749194, No Iterations 1
diagonal:  Solving for rho, Initial residual = 0, Final residual = 0, No Iterations 0
time step continuity errors : sum local = 2.4641031e-06, global = -6.4245458e-10, cumulative = -1.544716e-07
smoothSolver:  Solving for p, Initial residual = 0.0099262283, Final residual = 1.8001943e-06, No Iterations 4
diagonal:  Solving for rho, Initial residual = 0, Final residual = 0, No Iterations 0
time step continuity errors : sum local = 4.4721798e-10, global = 3.0527364e-12, cumulative = -1.5446855e-07
smoothSolver:  Solving for nuTilda, Initial residual = 0.0094086993, Final residual = 4.751304e-07, No Iterations 1
ExecutionTime = 6.24 s  ClockTime = 7 s

forceCoeffs forces write:
    Coefficient	Total	Pressure	Viscous	Internal
    Cd:	22.756741	22.696113	0.060627964	0
    Cd(f):	11.378384	11.34807	0.030313952	0
    Cd(r):	11.378356	11.348042	0.030314013	0
    Cl:	-2.8233788e-05	-2.8294398e-05	6.0610459e-08	0
    Cl(f):	-1.4115342e-05	-1.4147199e-05	3.1857164e-08	0
    Cl(r):	-1.4118446e-05	-1.4147199e-05	2.8753294e-08	0
    CmPitch:	1.5519289e-09	-6.2498232e-15	1.5519351e-09	0
    CmRoll:	1.4116894e-05	1.4147199e-05	-3.0305229e-08	0
    CmYaw:	11.37837	11.348056	0.030313982	0
    Cs:	3.0343795e-19	3.0357755e-19	-1.3959888e-22	0
    Cs(f):	11.37837	11.348056	0.030313982	0
    Cs(r):	-11.37837	-11.348056	-0.030313982	0

    writing force and moment coefficient files.

Courant Number mean: 0.016101671 max: 0.15212993
Time = 0.045

PIMPLE: iteration 1
diagonal:  Solving for rho, Initial residual = 0, Final residual = 0, No Iterations 0
smoothSolver:  Solving for Ux, Initial residual = 0.0063908276, Final residual = 2.506846e-06, No Iterations 2
smoothSolver:  Solving for Uy, Initial residual = 0.087088501, Final residual = 2.3348339e-08, No Iterations 4
smoothSolver:  Solving for e, Initial residual = 0.033489517, Final residual = 1.1726107e-08, No Iterations 4
smoothSolver:  Solving for p, Initial residual = 0.098793366, Final residual = 0.0093627982, No Iterations 1
diagonal:  Solving for rho, Initial residual = 0, Final residual = 0, No Iterations 0
time step continuity errors : sum local = 2.4931971e-06, global = -2.8232049e-10, cumulative = -1.5475087e-07
smoothSolver:  Solving for p, Initial residual = 0.0087141889, Final residual = 9.6116321e-06, No Iterations 3
diagonal:  Solving for rho, Initial residual = 0, Final residual = 0, No Iterations 0
time step continuity errors : sum local = 2.7461835e-09, global = 8.4485253e-11, cumulative = -1.5466638e-07
smoothSolver:  Solving for nuTilda, Initial residual = 0.0081796267, Final residual = 4.0556324e-07, No Iterations 1
ExecutionTime = 6.57 s  ClockTime = 7 s

forceCoeffs forces write:
    Coefficient	Total	Pressure	Viscous	Internal
    Cd:	23.971777	23.912238	0.059539542	0
    Cd(f):	11.985895	11.956125	0.02976974	0
    Cd(r):	11.985883	11.956113	0.029769802	0
    Cl:	-1.2091356e-05	-1.215284e-05	6.1484238e-08	0
    Cl(f):	-6.044674e-06	-6.0764202e-06	3.1746157e-08	0
    Cl(r):	-6.0466821e-06	-6.0764202e-06	2.9738081e-08	0
    CmPitch:	1.0040221e-09	-1.5957047e-14	1.0040381e-09	0
    CmRoll:	6.0456781e-06	6.0764202e-06	-3.0742119e-08	0
    CmYaw:	11.985889	11.956119	0.029769771	0
    Cs:	3.0861614e-19	3.0306462e-19	5.5515237e-21	0
    Cs(f):	11.985889	11.956119	0.029769771	0
    Cs(r):	-11.985889	-11.956119	-0.029769771	0

    writing force and moment coefficient files.

Courant Number mean: 0.01609128 max: 0.15212923
Time = 0.05

PIMPLE: iteration 1
diagonal:  Solving for rho, Initial residual = 0, Final residual = 0, No Iterations 0
smoothSolver:  Solving for Ux, Initial residual = 0.0060999458, Final residual = 2.2131557e-06, No Iterations 2
smoothSolver:  Solving for Uy, Initial residual = 0.08215503, Final residual = 1.9083515e-08, No Iterations 4
smoothSolver:  Solving for e, Initial residual = 0.032330232, Final residual = 9.632607e-09, No Iterations 4
smoothSolver:  Solving for p, Initial residual = 0.086637693, Final residual = 0.0078039647, No Iterations 1
diagonal:  Solving for rho, Initial residual = 0, Final residual = 0, No Iterations 0
time step continuity errors : sum local = 2.3668837e-06, global = -7.7250805e-09, cumulative = -1.6239146e-07
smoothSolver:  Solving for p, Initial residual = 0.0073339401, Final residual = 6.5787669e-06, No Iterations 3
diagonal:  Solving for rho, Initial residual = 0, Final residual = 0, No Iterations 0
time step continuity errors : sum local = 2.1240322e-09, global = 2.153903e-11, cumulative = -1.6236993e-07
smoothSolver:  Solving for nuTilda, Initial residual = 0.0072171345, Final residual = 3.5250514e-07, No Iterations 1
ExecutionTime = 6.91 s  ClockTime = 7 s

forceCoeffs forces write:
    Coefficient	Total	Pressure	Viscous	Internal
    Cd:	24.6225	24.564164	0.058335698	0
    Cd(f):	12.311249	12.282081	0.02916782	0
    Cd(r):	12.311251	12.282083	0.029167879	0
    Cl:	2.2590198e-06	2.1996922e-06	5.9327674e-08	0
    Cl(f):	1.1299082e-06	1.0998461e-06	3.0062144e-08	0
    Cl(r):	1.1291116e-06	1.0998461e-06	2.926553e-08	0
    CmPitch:	3.9828785e-10	-1.907473e-14	3.9830693e-10	0
    CmRoll:	-1.1295099e-06	-1.0998461e-06	-2.9663837e-08	0
    CmYaw:	12.31125	12.282082	0.029167849	0
    Cs:	3.1542694e-19	3.0275693e-19	1.267001e-20	0
    Cs(f):	12.31125	12.282082	0.029167849	0
    Cs(r):	-12.31125	-12.282082	-0.029167849	0

    writing force and moment coefficient files.

Courant Number mean: 0.016080353 max: 0.15212239
Time = 0.055

PIMPLE: iteration 1
diagonal:  Solving for rho, Initial residual = 0, Final residual = 0, No Iterations 0
smoothSolver:  Solving for Ux, Initial residual = 0.0059933185, Final residual = 1.9463485e-06, No Iterations 2
smoothSolver:  Solving for Uy, Initial residual = 0.07816777, Final residual = 1.5415141e-08, No Iterations 4
smoothSolver:  Solving for e, Initial residual = 0.029939234, Final residual = 7.9252836e-09, No Iterations 4
smoothSolver:  Solving for p, Initial residual = 0.082266638, Final residual = 0.0068270323, No Iterations 1
diagonal:  Solving for rho, Initial residual = 0, Final residual = 0, No Iterations 0
time step continuity errors : sum local = 2.3207246e-06, global = -1.7135352e-08, cumulative = -1.7950528e-07
smoothSolver:  Solving for p, Initial residual = 0.0064414973, Final residual = 5.0503323e-06, No Iterations 3
diagonal:  Solving for rho, Initial residual = 0, Final residual = 0, No Iterations 0
time step continuity errors : sum local = 1.820993e-09, global = -4.5668712e-11, cumulative = -1.7955095e-07
smoothSolver:  Solving for nuTilda, Initial residual = 0.0064512747, Final residual = 3.1132786e-07, No Iterations 1
ExecutionTime = 7.25 s  ClockTime = 8 s

forceCoeffs forces write:
    Coefficient	Total	Pressure	Viscous	Internal
    Cd:	24.455014	24.397571	0.057442494	0
    Cd(f):	12.2275	12.198779	0.02872122	0
    Cd(r):	12.227513	12.198792	0.028721274	0
    Cl:	1.316395e-05	1.3110306e-05	5.3644285e-08	0
    Cl(f):	6.581961e-06	6.5551528e-06	2.680824e-08	0
    Cl(r):	6.5819889e-06	6.5551528e-06	2.6836046e-08	0
    CmPitch:	-1.391663e-11	-1.361517e-14	-1.3903015e-11	0
    CmRoll:	-6.5819749e-06	-6.5551528e-06	-2.6822143e-08	0
    CmYaw:	12.227507	12.198786	0.028721247	0
    Cs:	3.1954584e-19	3.027158e-19	1.6830047e-20	0
    Cs(f):	12.227507	12.198786	0.028721247	0
    Cs(r):	-12.227507	-12.198786	-0.028721247	0

    writing force and moment coefficient files.

Courant Number mean: 0.01607039 max: 0.15209289
Time = 0.06

PIMPLE: iteration 1
diagonal:  Solving for rho, Initial residual = 0, Final residual = 0, No Iterations 0
smoothSolver:  Solving for Ux, Initial residual = 0.0057147045, Final residual = 1.7194061e-06, No Iterations 2
smoothSolver:  Solving for Uy, Initial residual = 0.072773126, Final residual = 1.2554306e-08, No Iterations 4
smoothSolver:  Solving for e, Initial residual = 0.029625526, Final residual = 6.5666424e-09, No Iterations 4
smoothSolver:  Solving for p, Initial residual = 0.077397708, Final residual = 0.0059854013, No Iterations 1
diagonal:  Solving for rho, Initial residual = 0, Final residual = 0, No Iterations 0
time step continuity errors : sum local = 2.2570927e-06, global = -1.995186e-08, cumulative = -1.9950281e-07
smoothSolver:  Solving for p, Initial residual = 0.0056696414, Final residual = 3.9251528e-06, No Iterations 3
diagonal:  Solving for rho, Initial residual = 0, Final residual = 0, No Iterations 0
time step continuity errors : sum local = 1.5661534e-09, global = -9.56806e-11, cumulative = -1.9959849e-07
smoothSolver:  Solving for nuTilda, Initial residual = 0.0058310049, Final residual = 2.7822289e-07, No Iterations 1
ExecutionTime = 7.58 s  ClockTime = 8 s

forceCoeffs forces write:
    Coefficient	Total	Pressure	Viscous	Internal
    Cd:	23.712298	23.655265	0.057033559	0
    Cd(f):	11.856141	11.827624	0.028516757	0
    Cd(r):	11.856157	11.827641	0.028516802	0
    Cl:	1.6309782e-05	1.6263964e-05	4.5817587e-08	0
    Cl(f):	8.1545189e-06	8.131982e-06	2.2536903e-08	0
    Cl(r):	8.1552627e-06	8.131982e-06	2.3280684e-08	0
    CmPitch:	-3.7189189e-10	-1.2359905e-15	-3.7189066e-10	0
    CmRoll:	-8.1548908e-06	-8.131982e-06	-2.2908794e-08	0
    CmYaw:	11.856149	11.827632	0.02851678	0
    Cs:	3.1884394e-19	3.0286429e-19	1.5979652e-20	0
    Cs(f):	11.856149	11.827632	0.02851678	0
    Cs(r):	-11.856149	-11.827632	-0.02851678	0

    writing force and moment coefficient files.

Courant Number mean: 0.016060327 max: 0.15199246
Time = 0.065

PIMPLE: iteration 1
diagonal:  Solving for rho, Initial residual = 0, Final residual = 0, No Iterations 0
smoothSolver:  Solving for Ux, Initial residual = 0.0055114798, Final residual = 1.5208878e-06, No Iterations 2
smoothSolver:  Solving for Uy, Initial residual = 0.067797587, Final residual = 1.0171633e-08, No Iterations 4
smoothSolver:  Solving for e, Initial residual = 0.028785657, Final residual = 9.1515132e-06, No Iterations 2
smoothSolver:  Solving for p, Initial residual = 0.071753366, Final residual = 0.0052370718, No Iterations 1
diagonal:  Solving for rho, Initial residual = 0, Final residual = 0, No Iterations 0
time step continuity errors : sum local = 2.1744805e-06, global = -1.308479e-08, cumulative = -2.1268328e-07
smoothSolver:  Solving for p, Initial residual = 0.0049762285, Final residual = 2.893315e-06, No Iterations 3
diagonal:  Solving for rho, Initial residual = 0, Final residual = 0, No Iterations 0
time step continuity errors : sum local = 1.2691694e-09, global = -1.2566123e-10, cumulative = -2.1280894e-07
smoothSolver:  Solving for nuTilda, Initial residual = 0.0053151393, Final residual = 2.523859e-07, No Iterations 1
ExecutionTime = 7.91 s  ClockTime = 8 s

forceCoeffs forces write:
    Coefficient	Total	Pressure	Viscous	Internal
    Cd:	22.944933	22.887875	0.057057739	0
    Cd(f):	11.472453	11.443924	0.028528852	0
    Cd(r):	11.47248	11.443951	0.028528887	0
    Cl:	2.7398449e-05	2.7362958e-05	3.5490959e-08	0
    Cl(f):	1.3696233e-05	1.3681479e-05	1.47538e-08	0
    Cl(r):	1.3702216e-05	1.3681479e-05	2.0737159e-08	0
    CmPitch:	-2.9916708e-09	8.4953264e-15	-2.9916793e-09	0
    CmRoll:	-1.3699225e-05	-1.3681479e-05	-1.7745479e-08	0
    CmYaw:	11.472467	11.443938	0.028528869	0
    Cs:	3.1599308e-19	3.0304088e-19	1.29522e-20	0
    Cs(f):	11.472467	11.443938	0.028528869	0
    Cs(r):	-11.472467	-11.443938	-0.028528869	0

    writing force and moment coefficient files.

Courant Number mean: 0.016050224 max: 0.15169849
Time = 0.07

PIMPLE: iteration 1
diagonal:  Solving for rho, Initial residual = 0, Final residual = 0, No Iterations 0
smoothSolver:  Solving for Ux, Initial residual = 0.0054389502, Final residual = 1.310377e-06, No Iterations 2
smoothSolver:  Solving for Uy, Initial residual = 0.064552982, Final residual = 7.9883648e-09, No Iterations 4
smoothSolver:  Solving for e, Initial residual = 0.027902308, Final residual = 8.1536525e-06, No Iterations 2
smoothSolver:  Solving for p, Initial residual = 0.067945868, Final residual = 0.0046977835, No Iterations 1
diagonal:  Solving for rho, Initial residual = 0, Final residual = 0, No Iterations 0
time step continuity errors : sum local = 2.1368014e-06, global = -6.7661301e-10, cumulative = -2.1348555e-07
smoothSolver:  Solving for p, Initial residual = 0.0044812066, Final residual = 2.893412e-06, No Iterations 3
diagonal:  Solving for rho, Initial residual = 0, Final residual = 0, No Iterations 0
time step continuity errors : sum local = 1.3897666e-09, global = -1.59183e-10, cumulative = -2.1364473e-07
smoothSolver:  Solving for nuTilda, Initial residual = 0.0048788377, Final residual = 2.3018729e-07, No Iterations 1
ExecutionTime = 8.24 s  ClockTime = 9 s

forceCoeffs forces write:
    Coefficient	Total	Pressure	Viscous	Internal
    Cd:	22.563812	22.506604	0.057208304	0
    Cd(f):	11.281891	11.253287	0.028604139	0
    Cd(r):	11.281921	11.253317	0.028604166	0
    Cl:	3.0404162e-05	3.0377107e-05	2.70551e-08	0
    Cl(f):	1.5196461e-05	1.5188553e-05	7.9073024e-09	0
    Cl(r):	1.5207701e-05	1.5188553e-05	1.9147797e-08	0
    CmPitch:	-5.6202355e-09	1.1885265e-14	-5.6202474e-09	0
    CmRoll:	-1.5202081e-05	-1.5188553e-05	-1.352755e-08	0
    CmYaw:	11.281906	11.253302	0.028604152	0
    Cs:	3.1208911e-19	3.0317342e-19	8.91569e-21	0
    Cs(f):	11.281906	11.253302	0.028604152	0
    Cs(r):	-11.281906	-11.253302	-0.028604152	0

    writing force and moment coefficient files.

Courant Number mean: 0.016040822 max: 0.15093447
Time = 0.075

PIMPLE: iteration 1
diagonal:  Solving for rho, Initial residual = 0, Final residual = 0, No Iterations 0
smoothSolver:  Solving for Ux, Initial residual = 0.0053308473, Final residual = 1.0874518e-06, No Iterations 2
smoothSolver:  Solving for Uy, Initial residual = 0.061380528, Final residual = 6.4075329e-09, No Iterations 4
smoothSolver:  Solving for e, Initial residual = 0.027510934, Final residual = 7.2327204e-06, No Iterations 2
smoothSolver:  Solving for p, Initial residual = 0.063917684, Final residual = 0.0042137805, No Iterations 1
diagonal:  Solving for rho, Initial residual = 0, Final residual = 0, No Iterations 0
time step continuity errors : sum local = 2.0927215e-06, global = 1.7696378e-08, cumulative = -1.9594836e-07
smoothSolver:  Solving for p, Initial residual = 0.0040287468, Final residual = 3.1746696e-06, No Iterations 3
diagonal:  Solving for rho, Initial residual = 0, Final residual = 0, No Iterations 0
time step continuity errors : sum local = 1.6664517e-09, global = -1.8358779e-10, cumulative = -1.9613194e-07
smoothSolver:  Solving for nuTilda, Initial residual = 0.0045061431, Final residual = 2.1085047e-07, No Iterations 1
ExecutionTime = 8.56 s  ClockTime = 9 s

forceCoeffs forces write:
    Coefficient	Total	Pressure	Viscous	Internal
    Cd:	22.49594	22.438732	0.057207734	0
    Cd(f):	11.247958	11.219354	0.028603855	0
    Cd(r):	11.247982	11.219378	0.028603878	0
    Cl:	2.4038451e-05	2.4015544e-05	2.2907045e-08	0
    Cl(f):	1.2012241e-05	1.2007772e-05	4.4689964e-09	0
    Cl(r):	1.202621e-05	1.2007772e-05	1.8438049e-08	0
    CmPitch:	-6.984518e-09	8.0929669e-15	-6.9845261e-09	0
    CmRoll:	-1.2019226e-05	-1.2007772e-05	-1.1453523e-08	0
    CmYaw:	11.24797	11.219366	0.028603867	0
    Cs:	3.1009559e-19	3.0316882e-19	6.9267717e-21	0
    Cs(f):	11.24797	11.219366	0.028603867	0
    Cs(r):	-11.24797	-11.219366	-0.028603867	0

    writing force and moment coefficient files.

Courant Number mean: 0.016031432 max: 0.1495794
Time = 0.08

PIMPLE: iteration 1
diagonal:  Solving for rho, Initial residual = 0, Final residual = 0, No Iterations 0
smoothSolver:  Solving for Ux, Initial residual = 0.0052740737, Final residual = 9.4863929e-07, No Iterations 2
smoothSolver:  Solving for Uy, Initial residual = 0.058454028, Final residual = 5.2498539e-09, No Iterations 4
smoothSolver:  Solving for e, Initial residual = 0.026803619, Final residual = 6.3655052e-06, No Iterations 2
smoothSolver:  Solving for p, Initial residual = 0.059251832, Final residual = 0.0037129745, No Iterations 1
diagonal:  Solving for rho, Initial residual = 0, Final residual = 0, No Iterations 0
time step continuity errors : sum local = 2.0105573e-06, global = 4.2150856e-08, cumulative = -1.5398109e-07
smoothSolver:  Solving for p, Initial residual = 0.0035566933, Final residual = 3.5662315e-06, No Iterations 3
diagonal:  Solving for rho, Initial residual = 0, Final residual = 0, No Iterations 0
time step continuity errors : sum local = 2.0482562e-09, global = -1.9943709e-10, cumulative = -1.5418052e-07
smoothSolver:  Solving for nuTilda, Initial residual = 0.0041830959, Final residual = 1.9415098e-07, No Iterations 1
ExecutionTime = 8.91 s  ClockTime = 9 s

forceCoeffs forces write:
    Coefficient	Total	Pressure	Viscous	Internal
    Cd:	22.519412	22.462387	0.057025133	0
    Cd(f):	11.259701	11.231189	0.028512555	0
    Cd(r):	11.259711	11.231198	0.028512577	0
    Cl:	9.3675537e-06	9.3455353e-06	2.2018405e-08	0
    Cl(f):	4.6763473e-06	4.6727676e-06	3.5797014e-09	0
    Cl(r):	4.6912063e-06	4.6727676e-06	1.8438704e-08	0
    CmPitch:	-7.4295005e-09	7.7098821e-16	-7.4295013e-09	0
    CmRoll:	-4.6837768e-06	-4.6727676e-06	-1.1009203e-08	0
    CmYaw:	11.259706	11.231194	0.028512566	0
    Cs:	3.0998164e-19	3.0307999e-19	6.9016455e-21	0
    Cs(f):	11.259706	11.231194	0.028512566	0
    Cs(r):	-11.259706	-11.231194	-0.028512566	0

    writing force and moment coefficient files.

Courant Number mean: 0.01602282 max: 0.148329
Time = 0.085

PIMPLE: iteration 1
diagonal:  Solving for rho, Initial residual = 0, Final residual = 0, No Iterations 0
smoothSolver:  Solving for Ux, Initial residual = 0.0052018633, Final residual = 8.133325e-07, No Iterations 2
smoothSolver:  Solving for Uy, Initial residual = 0.056595482, Final residual = 4.4683864e-09, No Iterations 4
smoothSolver:  Solving for e, Initial residual = 0.026439636, Final residual = 5.5493689e-06, No Iterations 2
smoothSolver:  Solving for p, Initial residual = 0.055450478, Final residual = 0.0033455084, No Iterations 1
diagonal:  Solving for rho, Initial residual = 0, Final residual = 0, No Iterations 0
time step continuity errors : sum local = 1.9779143e-06, global = 7.9939707e-08, cumulative = -7.4240818e-08
smoothSolver:  Solving for p, Initial residual = 0.0031759853, Final residual = 4.2537999e-06, No Iterations 3
diagonal:  Solving for rho, Initial residual = 0, Final residual = 0, No Iterations 0
time step continuity errors : sum local = 2.683433e-09, global = -1.7174961e-10, cumulative = -7.4412567e-08
smoothSolver:  Solving for nuTilda, Initial residual = 0.0039007125, Final residual = 1.803554e-07, No Iterations 1
ExecutionTime = 9.26 s  ClockTime = 10 s

forceCoeffs forces write:
    Coefficient	Total	Pressure	Viscous	Internal
    Cd:	22.488806	22.432005	0.056801345	0
    Cd(f):	11.244407	11.216007	0.028400662	0
    Cd(r):	11.244399	11.215998	0.028400684	0
    Cl:	-8.5970076e-06	-8.6190607e-06	2.2053144e-08	0
    Cl(f):	-4.3060039e-06	-4.3095304e-06	3.5264989e-09	0
    Cl(r):	-4.2910037e-06	-4.3095304e-06	1.8526645e-08	0
    CmPitch:	-7.5000782e-09	-5.1873051e-15	-7.500073e-09	0
    CmRoll:	4.2985038e-06	4.3095304e-06	-1.1026572e-08	0
    CmYaw:	11.244403	11.216002	0.028400673	0
    Cs:	3.1087712e-19	3.0297111e-19	7.9060078e-21	0
    Cs(f):	11.244403	11.216002	0.028400673	0
    Cs(r):	-11.244403	-11.216002	-0.028400673	0

    writing force and moment coefficient files.

Courant Number mean: 0.016014502 max: 0.14708244
Time = 0.09

PIMPLE: iteration 1
diagonal:  Solving for rho, Initial residual = 0, Final residual = 0, No Iterations 0
smoothSolver:  Solving for Ux, Initial residual = 0.0051371076, Final residual = 7.0776451e-07, No Iterations 2
smoothSolver:  Solving for Uy, Initial residual = 0.05411941, Final residual = 4.1650187e-09, No Iterations 4
smoothSolver:  Solving for e, Initial residual = 0.026269792, Final residual = 4.6741252e-06, No Iterations 2
smoothSolver:  Solving for p, Initial residual = 0.051303043, Final residual = 0.0030185685, No Iterations 1
diagonal:  Solving for rho, Initial residual = 0, Final residual = 0, No Iterations 0
time step continuity errors : sum local = 1.9565121e-06, global = 1.3726538e-07, cumulative = 6.2852818e-08
smoothSolver:  Solving for p, Initial residual = 0.0028315645, Final residual = 5.2836646e-06, No Iterations 3
diagonal:  Solving for rho, Initial residual = 0, Final residual = 0, No Iterations 0
time step continuity errors : sum local = 3.6819221e-09, global = -6.1583096e-11, cumulative = 6.2791235e-08
smoothSolver:  Solving for nuTilda, Initial residual = 0.0036514568, Final residual = 1.6826927e-07, No Iterations 1
ExecutionTime = 9.59 s  ClockTime = 10 s

forceCoeffs forces write:
    Coefficient	Total	Pressure	Viscous	Internal
    Cd:	22.362733	22.306071	0.056661851	0
    Cd(f):	11.181377	11.153047	0.028330916	0
    Cd(r):	11.181356	11.153025	0.028330936	0
    Cl:	-2.1760026e-05	-2.1779831e-05	1.9805001e-08	0
    Cl(f):	-1.0887821e-05	-1.0889916e-05	2.0941985e-09	0
    Cl(r):	-1.0872205e-05	-1.0889916e-05	1.7710803e-08	0
    CmPitch:	-7.8083105e-09	-8.4206369e-15	-7.8083021e-09	0
    CmRoll:	1.0880013e-05	1.0889916e-05	-9.9025006e-09	0
    CmYaw:	11.181367	11.153036	0.028330926	0
    Cs:	3.1176803e-19	3.0288697e-19	8.8810577e-21	0
    Cs(f):	11.181367	11.153036	0.028330926	0
    Cs(r):	-11.181367	-11.153036	-0.028330926	0

    writing force and moment coefficient files.

Courant Number mean: 0.016006294 max: 0.14587512
Time = 0.095

PIMPLE: iteration 1
diagonal:  Solving for rho, Initial residual = 0, Final residual = 0, No Iterations 0
smoothSolver:  Solving for Ux, Initial residual = 0.0051120763, Final residual = 6.3565866e-07, No Iterations 2
smoothSolver:  Solving for Uy, Initial residual = 0.051699681, Final residual = 9.5154883e-06, No Iterations 2
smoothSolver:  Solving for e, Initial residual = 0.026066121, Final residual = 4.1265225e-06, No Iterations 2
smoothSolver:  Solving for p, Initial residual = 0.047639212, Final residual = 0.0027806571, No Iterations 1
diagonal:  Solving for rho, Initial residual = 0, Final residual = 0, No Iterations 0
time step continuity errors : sum local = 1.9879889e-06, global = 2.1454262e-07, cumulative = 2.7733386e-07
smoothSolver:  Solving for p, Initial residual = 0.00260833, Final residual = 6.5019744e-06, No Iterations 3
diagonal:  Solving for rho, Initial residual = 0, Final residual = 0, No Iterations 0
time step continuity errors : sum local = 5.0378599e-09, global = 1.8003781e-10, cumulative = 2.775139e-07
smoothSolver:  Solving for nuTilda, Initial residual = 0.0034296455, Final residual = 1.5732371e-07, No Iterations 1
ExecutionTime = 9.93 s  ClockTime = 10 s

forceCoeffs forces write:
    Coefficient	Total	Pressure	Viscous	Internal
    Cd:	22.173048	22.116405	0.056643086	0
    Cd(f):	11.086539	11.058218	0.028321537	0
    Cd(r):	11.086508	11.058187	0.028321549	0
    Cl:	-3.07114e-05	-3.0723175e-05	1.1775072e-08	0
    Cl(f):	-1.5364378e-05	-1.5361587e-05	-2.7904953e-09	0
    Cl(r):	-1.5347022e-05	-1.5361587e-05	1.4565567e-08	0
    CmPitch:	-8.6780372e-09	-6.1317656e-15	-8.6780311e-09	0
    CmRoll:	1.53557e-05	1.5361587e-05	-5.8875358e-09	0
    CmYaw:	11.086524	11.058202	0.028321543	0
    Cs:	3.1155248e-19	3.0285993e-19	8.6925522e-21	0
    Cs(f):	11.086524	11.058202	0.028321543	0
    Cs(r):	-11.086524	-11.058202	-0.028321543	0

    writing force and moment coefficient files.

Courant Number mean: 0.015998549 max: 0.14470527
Time = 0.1

PIMPLE: iteration 1
diagonal:  Solving for rho, Initial residual = 0, Final residual = 0, No Iterations 0
smoothSolver:  Solving for Ux, Initial residual = 0.0050928099, Final residual = 6.2735895e-07, No Iterations 2
smoothSolver:  Solving for Uy, Initial residual = 0.049382759, Final residual = 9.0496925e-06, No Iterations 2
smoothSolver:  Solving for e, Initial residual = 0.026358327, Final residual = 3.98087e-06, No Iterations 2
smoothSolver:  Solving for p, Initial residual = 0.043621512, Final residual = 0.0025258113, No Iterations 1
diagonal:  Solving for rho, Initial residual = 0, Final residual = 0, No Iterations 0
time step continuity errors : sum local = 2.0057137e-06, global = 3.0172398e-07, cumulative = 5.7923788e-07
smoothSolver:  Solving for p, Initial residual = 0.0024035087, Final residual = 7.6041979e-06, No Iterations 3
diagonal:  Solving for rho, Initial residual = 0, Final residual = 0, No Iterations 0
time step continuity errors : sum local = 6.5851622e-09, global = 5.9672765e-10, cumulative = 5.7983461e-07
smoothSolver:  Solving for nuTilda, Initial residual = 0.0032308677, Final residual = 1.4756244e-07, No Iterations 1
ExecutionTime = 10.27 s  ClockTime = 11 s

forceCoeffs forces write:
    Coefficient	Total	Pressure	Viscous	Internal
    Cd:	21.988467	21.931755	0.056711859	0
    Cd(f):	10.994259	10.965903	0.028355932	0
    Cd(r):	10.994209	10.965853	0.028355927	0
    Cl:	-5.0054414e-05	-5.0049173e-05	-5.2416786e-09	0
    Cl(f):	-2.5036996e-05	-2.5024586e-05	-1.2409791e-08	0
    Cl(r):	-2.5017418e-05	-2.5024586e-05	7.1681123e-09	0
    CmPitch:	-9.7889535e-09	-1.9274705e-15	-9.7889516e-09	0
    CmRoll:	2.5027207e-05	2.5024586e-05	2.6208393e-09	0
    CmYaw:	10.994234	10.965878	0.02835593	0
    Cs:	3.1008432e-19	3.0286944e-19	7.2148795e-21	0
    Cs(f):	10.994234	10.965878	0.02835593	0
    Cs(r):	-10.994234	-10.965878	-0.02835593	0

    writing force and moment coefficient files.

Courant Number mean: 0.015992122 max: 0.14357151
Time = 0.105

PIMPLE: iteration 1
diagonal:  Solving for rho, Initial residual = 0, Final residual = 0, No Iterations 0
smoothSolver:  Solving for Ux, Initial residual = 0.005077777, Final residual = 6.2268476e-07, No Iterations 2
smoothSolver:  Solving for Uy, Initial residual = 0.046816302, Final residual = 8.6005455e-06, No Iterations 2
smoothSolver:  Solving for e, Initial residual = 0.026967778, Final residual = 4.2899879e-06, No Iterations 2
smoothSolver:  Solving for p, Initial residual = 0.040349954, Final residual = 0.0022952803, No Iterations 1
diagonal:  Solving for rho, Initial residual = 0, Final residual = 0, No Iterations 0
time step continuity errors : sum local = 2.0356132e-06, global = 3.704289e-07, cumulative = 9.5026351e-07
smoothSolver:  Solving for p, Initial residual = 0.0021950483, Final residual = 8.26433e-06, No Iterations 3
diagonal:  Solving for rho, Initial residual = 0, Final residual = 0, No Iterations 0
time step continuity errors : sum local = 8.0151502e-09, global = 1.0815183e-09, cumulative = 9.5134503e-07
smoothSolver:  Solving for nuTilda, Initial residual = 0.0030520388, Final residual = 1.3859462e-07, No Iterations 1
ExecutionTime = 10.59 s  ClockTime = 11 s

forceCoeffs forces write:
    Coefficient	Total	Pressure	Viscous	Internal
    Cd:	21.847999	21.791199	0.056800373	0
    Cd(f):	10.924049	10.895649	0.028400202	0
    Cd(r):	10.92395	10.89555	0.02840017	0
    Cl:	-9.8959195e-05	-9.8927441e-05	-3.1753501e-08	0
    Cl(f):	-4.9489929e-05	-4.9463721e-05	-2.6208765e-08	0
    Cl(r):	-4.9469265e-05	-4.9463721e-05	-5.5447364e-09	0
    CmPitch:	-1.0332014e-08	-2.2888713e-16	-1.0332014e-08	0
    CmRoll:	4.9479597e-05	4.9463721e-05	1.5876751e-08	0
    CmYaw:	10.924	10.895599	0.028400186	0
    Cs:	3.0851817e-19	3.0287229e-19	5.6458828e-21	0
    Cs(f):	10.924	10.895599	0.028400186	0
    Cs(r):	-10.924	-10.895599	-0.028400186	0

    writing force and moment coefficient files.

Courant Number mean: 0.015986104 max: 0.14246989
Time = 0.11

PIMPLE: iteration 1
diagonal:  Solving for rho, Initial residual = 0, Final residual = 0, No Iterations 0
smoothSolver:  Solving for Ux, Initial residual = 0.0049872673, Final residual = 6.8895362e-07, No Iterations 2
smoothSolver:  Solving for Uy, Initial residual = 0.044665629, Final residual = 8.4330997e-06, No Iterations 2
smoothSolver:  Solving for e, Initial residual = 0.028479496, Final residual = 4.6741058e-06, No Iterations 2
smoothSolver:  Solving for p, Initial residual = 0.036900854, Final residual = 0.0020447696, No Iterations 1
diagonal:  Solving for rho, Initial residual = 0, Final residual = 0, No Iterations 0
time step continuity errors : sum local = 2.0290337e-06, global = 4.1327074e-07, cumulative = 1.3646158e-06
smoothSolver:  Solving for p, Initial residual = 0.0019408998, Final residual = 8.2687001e-06, No Iterations 3
diagonal:  Solving for rho, Initial residual = 0, Final residual = 0, No Iterations 0
time step continuity errors : sum local = 8.9826889e-09, global = 1.4875301e-09, cumulative = 1.3661033e-06
smoothSolver:  Solving for nuTilda, Initial residual = 0.0028929709, Final residual = 1.3110723e-07, No Iterations 1
ExecutionTime = 10.92 s  ClockTime = 11 s

forceCoeffs forces write:
    Coefficient	Total	Pressure	Viscous	Internal
    Cd:	21.730965	21.674108	0.056857147	0
    Cd(f):	10.865578	10.837149	0.028428608	0
    Cd(r):	10.865387	10.836958	0.028428539	0
    Cl:	-0.00019127963	-0.0001912108	-6.8820806e-08	0
    Cl(f):	-9.5649361e-05	-9.5605402e-05	-4.3958867e-08	0
    Cl(r):	-9.5630264e-05	-9.5605402e-05	-2.4861939e-08	0
    CmPitch:	-9.5484656e-09	-1.9178332e-15	-9.5484637e-09	0
    CmRoll:	9.5639813e-05	9.5605402e-05	3.4410403e-08	0
    CmYaw:	10.865482	10.837054	0.028428573	0
    Cs:	3.0803399e-19	3.0284353e-19	5.1904557e-21	0
    Cs(f):	10.865482	10.837054	0.028428573	0
    Cs(r):	-10.865482	-10.837054	-0.028428573	0

    writing force and moment coefficient files.

Courant Number mean: 0.01597958 max: 0.14139717
Time = 0.115

PIMPLE: iteration 1
diagonal:  Solving for rho, Initial residual = 0, Final residual = 0, No Iterations 0
smoothSolver:  Solving for Ux, Initial residual = 0.0049295301, Final residual = 6.6956182e-07, No Iterations 2
smoothSolver:  Solving for Uy, Initial residual = 0.043471527, Final residual = 8.1153206e-06, No Iterations 2
smoothSolver:  Solving for e, Initial residual = 0.029863061, Final residual = 4.783166e-06, No Iterations 2
smoothSolver:  Solving for p, Initial residual = 0.033633839, Final residual = 0.0017416567, No Iterations 1
diagonal:  Solving for rho, Initial residual = 0, Final residual = 0, No Iterations 0
time step continuity errors : sum local = 1.9331878e-06, global = 4.1866644e-07, cumulative = 1.7847697e-06
smoothSolver:  Solving for p, Initial residual = 0.0016400197, Final residual = 7.5966672e-06, No Iterations 3
diagonal:  Solving for rho, Initial residual = 0, Final residual = 0, No Iterations 0
time step continuity errors : sum local = 9.2167444e-09, global = 1.7002275e-09, cumulative = 1.78647e-06
smoothSolver:  Solving for nuTilda, Initial residual = 0.0027488984, Final residual = 1.2407851e-07, No Iterations 1
ExecutionTime = 11.24 s  ClockTime = 12 s

forceCoeffs forces write:
    Coefficient	Total	Pressure	Viscous	Internal
    Cd:	21.593909	21.53703	0.056879428	0
    Cd(f):	10.79712	10.768681	0.028439773	0
    Cd(r):	10.796789	10.768349	0.028439655	0
    Cl:	-0.00033153022	-0.00033141203	-1.1818959e-07	0
    Cl(f):	-0.0001657722	-0.00016570601	-6.6187135e-08	0
    Cl(r):	-0.00016575802	-0.00016570601	-5.2002454e-08	0
    CmPitch:	-7.092346e-09	-5.7125408e-15	-7.0923402e-09	0
    CmRoll:	0.00016576511	0.00016570601	5.9094794e-08	0
    CmYaw:	10.796955	10.768515	0.028439714	0
    Cs:	3.0844411e-19	3.0282239e-19	5.6217161e-21	0
    Cs(f):	10.796955	10.768515	0.028439714	0
    Cs(r):	-10.796955	-10.768515	-0.028439714	0

    writing force and moment coefficient files.

Courant Number mean: 0.015972558 max: 0.1403495
Time = 0.12

PIMPLE: iteration 1
diagonal:  Solving for rho, Initial residual = 0, Final residual = 0, No Iterations 0
smoothSolver:  Solving for Ux, Initial residual = 0.0049013612, Final residual = 6.6898343e-07, No Iterations 2
smoothSolver:  Solving for Uy, Initial residual = 0.042681922, Final residual = 7.6247527e-06, No Iterations 2
smoothSolver:  Solving for e, Initial residual = 0.032082032, Final residual = 4.9902449e-06, No Iterations 2
smoothSolver:  Solving for p, Initial residual = 0.030799905, Final residual = 0.0014577721, No Iterations 1
diagonal:  Solving for rho, Initial residual = 0, Final residual = 0, No Iterations 0
time step continuity errors : sum local = 1.8037573e-06, global = 3.8272291e-07, cumulative = 2.1691929e-06
smoothSolver:  Solving for p, Initial residual = 0.0014082236, Final residual = 6.4573703e-06, No Iterations 3
diagonal:  Solving for rho, Initial residual = 0, Final residual = 0, No Iterations 0
time step continuity errors : sum local = 8.6847375e-09, global = 1.6858306e-09, cumulative = 2.1708787e-06
smoothSolver:  Solving for nuTilda, Initial residual = 0.0026181031, Final residual = 1.1831773e-07, No Iterations 1
ExecutionTime = 11.6 s  ClockTime = 12 s

forceCoeffs forces write:
    Coefficient	Total	Pressure	Viscous	Internal
    Cd:	21.414315	21.357413	0.056901432	0
    Cd(f):	10.707416	10.678965	0.028450802	0
    Cd(r):	10.706899	10.678448	0.02845063	0
    Cl:	-0.00051718886	-0.00051701674	-1.7211537e-07	0
    Cl(f):	-0.00025859735	-0.00025850837	-8.8980229e-08	0
    Cl(r):	-0.00025859151	-0.00025850837	-8.3135146e-08	0
    CmPitch:	-2.9225463e-09	-4.8909565e-15	-2.9225414e-09	0
    CmRoll:	0.00025859443	0.00025850837	8.6057687e-08	0
    CmYaw:	10.707157	10.678707	0.028450716	0
    Cs:	3.0884794e-19	3.0282764e-19	6.0202966e-21	0
    Cs(f):	10.707157	10.678707	0.028450716	0
    Cs(r):	-10.707157	-10.678707	-0.028450716	0

    writing force and moment coefficient files.

Courant Number mean: 0.01596711 max: 0.13932313
Time = 0.125

PIMPLE: iteration 1
diagonal:  Solving for rho, Initial residual = 0, Final residual = 0, No Iterations 0
smoothSolver:  Solving for Ux, Initial residual = 0.0047622229, Final residual = 6.1657889e-07, No Iterations 2
smoothSolver:  Solving for Uy, Initial residual = 0.040841159, Final residual = 7.1413896e-06, No Iterations 2
smoothSolver:  Solving for e, Initial residual = 0.033955686, Final residual = 5.6419474e-06, No Iterations 2
smoothSolver:  Solving for p, Initial residual = 0.027683815, Final residual = 0.0013595868, No Iterations 1
diagonal:  Solving for rho, Initial residual = 0, Final residual = 0, No Iterations 0
time step continuity errors : sum local = 1.8606358e-06, global = 3.2344614e-07, cumulative = 2.4943249e-06
smoothSolver:  Solving for p, Initial residual = 0.0013295268, Final residual = 5.9980605e-06, No Iterations 3
diagonal:  Solving for rho, Initial residual = 0, Final residual = 0, No Iterations 0
time step continuity errors : sum local = 8.8412358e-09, global = 1.4728655e-09, cumulative = 2.4957977e-06
smoothSolver:  Solving for nuTilda, Initial residual = 0.0024980613, Final residual = 1.1223481e-07, No Iterations 1
ExecutionTime = 11.93 s  ClockTime = 12 s

forceCoeffs forces write:
    Coefficient	Total	Pressure	Viscous	Internal
    Cd:	21.207078	21.15012	0.056958273	0
    Cd(f):	10.603905	10.575426	0.028479245	0
    Cd(r):	10.603173	10.574694	0.028479028	0
    Cl:	-0.00073155413	-0.00073133792	-2.1621268e-07	0
    Cl(f):	-0.00036577424	-0.00036566896	-1.0528123e-07	0
    Cl(r):	-0.00036577989	-0.00036566896	-1.1093145e-07	0
    CmPitch:	2.8251112e-09	5.999252e-16	2.8251106e-09	0
    CmRoll:	0.00036577707	0.00036566896	1.0810634e-07	0
    CmYaw:	10.603539	10.57506	0.028479137	0
    Cs:	3.0855082e-19	3.0284553e-19	5.705287e-21	0
    Cs(f):	10.603539	10.57506	0.028479137	0
    Cs(r):	-10.603539	-10.57506	-0.028479137	0

    writing force and moment coefficient files.

Courant Number mean: 0.015961398 max: 0.13831436
Time = 0.13

PIMPLE: iteration 1
diagonal:  Solving for rho, Initial residual = 0, Final residual = 0, No Iterations 0
smoothSolver:  Solving for Ux, Initial residual = 0.0047541736, Final residual = 6.3623344e-07, No Iterations 2
smoothSolver:  Solving for Uy, Initial residual = 0.040334143, Final residual = 6.9377626e-06, No Iterations 2
smoothSolver:  Solving for e, Initial residual = 0.035694393, Final residual = 5.3802199e-06, No Iterations 2
smoothSolver:  Solving for p, Initial residual = 0.024983945, Final residual = 0.0013207208, No Iterations 1
diagonal:  Solving for rho, Initial residual = 0, Final residual = 0, No Iterations 0
time step continuity errors : sum local = 1.9763843e-06, global = 2.6313349e-07, cumulative = 2.7589312e-06
smoothSolver:  Solving for p, Initial residual = 0.0013029274, Final residual = 6.261821e-06, No Iterations 3
diagonal:  Solving for rho, Initial residual = 0, Final residual = 0, No Iterations 0
time step continuity errors : sum local = 9.97894e-09, global = 1.1933898e-09, cumulative = 2.7601246e-06
smoothSolver:  Solving for nuTilda, Initial residual = 0.0023866287, Final residual = 1.0745852e-07, No Iterations 1
ExecutionTime = 12.25 s  ClockTime = 13 s

forceCoeffs forces write:
    Coefficient	Total	Pressure	Viscous	Internal
    Cd:	21.007721	20.950664	0.057057335	0
    Cd(f):	10.50433	10.475801	0.028528786	0
    Cd(r):	10.503392	10.474863	0.028528549	0
    Cl:	-0.00093802082	-0.00093778391	-2.369114e-07	0
    Cl(f):	-0.00046900099	-0.00046889195	-1.0903463e-07	0
    Cl(r):	-0.00046901983	-0.00046889195	-1.2787677e-07	0
    CmPitch:	9.4210801e-09	1.1637103e-14	9.4210684e-09	0
    CmRoll:	0.00046901041	0.00046889195	1.184557e-07	0
    CmYaw:	10.503861	10.475332	0.028528668	0
    Cs:	3.0728688e-19	3.028358e-19	4.4510786e-21	0
    Cs(f):	10.503861	10.475332	0.028528668	0
    Cs(r):	-10.503861	-10.475332	-0.028528668	0

    writing force and moment coefficient files.

Courant Number mean: 0.015955079 max: 0.13731975
Time = 0.135

PIMPLE: iteration 1
diagonal:  Solving for rho, Initial residual = 0, Final residual = 0, No Iterations 0
smoothSolver:  Solving for Ux, Initial residual = 0.0048230049, Final residual = 5.9950218e-07, No Iterations 2
smoothSolver:  Solving for Uy, Initial residual = 0.039463132, Final residual = 6.6029422e-06, No Iterations 2
smoothSolver:  Solving for e, Initial residual = 0.037885797, Final residual = 5.6649729e-06, No Iterations 2
smoothSolver:  Solving for p, Initial residual = 0.023225889, Final residual = 0.0012454871, No Iterations 1
diagonal:  Solving for rho, Initial residual = 0, Final residual = 0, No Iterations 0
time step continuity errors : sum local = 2.0110818e-06, global = 2.0504824e-07, cumulative = 2.9651728e-06
smoothSolver:  Solving for p, Initial residual = 0.0012265263, Final residual = 6.444625e-06, No Iterations 3
diagonal:  Solving for rho, Initial residual = 0, Final residual = 0, No Iterations 0
time step continuity errors : sum local = 1.0969071e-08, global = 9.3554144e-10, cumulative = 2.9661084e-06
smoothSolver:  Solving for nuTilda, Initial residual = 0.0022825556, Final residual = 1.0249626e-07, No Iterations 1
ExecutionTime = 12.57 s  ClockTime = 13 s

forceCoeffs forces write:
    Coefficient	Total	Pressure	Viscous	Internal
    Cd:	20.841934	20.784755	0.057179587	0
    Cd(f):	10.42152	10.39293	0.028589918	0
    Cd(r):	10.420414	10.391824	0.028589669	0
    Cl:	-0.0011059157	-0.0011056668	-2.4885094e-07	0
    Cl(f):	-0.00055294254	-0.00055283342	-1.0912132e-07	0
    Cl(r):	-0.00055297315	-0.00055283342	-1.3972962e-07	0
    CmPitch:	1.5304175e-08	2.5204087e-14	1.530415e-08	0
    CmRoll:	0.00055295784	0.00055283342	1.2442547e-07	0
    CmYaw:	10.420967	10.392377	0.028589793	0
    Cs:	3.0550741e-19	3.0275977e-19	2.7476394e-21	0
    Cs(f):	10.420967	10.392377	0.028589793	0
    Cs(r):	-10.420967	-10.392377	-0.028589793	0

    writing force and moment coefficient files.

Courant Number mean: 0.015949792 max: 0.1363362
Time = 0.14

PIMPLE: iteration 1
diagonal:  Solving for rho, Initial residual = 0, Final residual = 0, No Iterations 0
smoothSolver:  Solving for Ux, Initial residual = 0.0048910379, Final residual = 5.8885872e-07, No Iterations 2
smoothSolver:  Solving for Uy, Initial residual = 0.038467787, Final residual = 6.3804632e-06, No Iterations 2
smoothSolver:  Solving for e, Initial residual = 0.039329656, Final residual = 6.1110673e-06, No Iterations 2
smoothSolver:  Solving for p, Initial residual = 0.021631622, Final residual = 0.0011419864, No Iterations 1
diagonal:  Solving for rho, Initial residual = 0, Final residual = 0, No Iterations 0
time step continuity errors : sum local = 1.9662745e-06, global = 1.716366e-07, cumulative = 3.137745e-06
smoothSolver:  Solving for p, Initial residual = 0.0011319107, Final residual = 6.4000385e-06, No Iterations 3
diagonal:  Solving for rho, Initial residual = 0, Final residual = 0, No Iterations 0
time step continuity errors : sum local = 1.1513822e-08, global = 7.5691805e-10, cumulative = 3.1385019e-06
smoothSolver:  Solving for nuTilda, Initial residual = 0.002186668, Final residual = 9.8493276e-08, No Iterations 1
ExecutionTime = 12.9 s  ClockTime = 13 s

forceCoeffs forces write:
    Coefficient	Total	Pressure	Viscous	Internal
    Cd:	20.708679	20.651376	0.057303398	0
    Cd(f):	10.354959	10.326308	0.028651831	0
    Cd(r):	10.35372	10.325068	0.028651567	0
    Cl:	-0.0012398194	-0.0012395553	-2.6413853e-07	0
    Cl(f):	-0.00061989023	-0.00061977765	-1.1257761e-07	0
    Cl(r):	-0.00061992921	-0.00061977765	-1.5156092e-07	0
    CmPitch:	1.9491686e-08	2.7861586e-14	1.9491658e-08	0
    CmRoll:	0.00061990972	0.00061977765	1.3206927e-07	0
    CmYaw:	10.35434	10.325688	0.028651699	0
    Cs:	3.0415915e-19	3.0263523e-19	1.5239176e-21	0
    Cs(f):	10.35434	10.325688	0.028651699	0
    Cs(r):	-10.35434	-10.325688	-0.028651699	0

    writing force and moment coefficient files.

Courant Number mean: 0.01594554 max: 0.14140706
Time = 0.145

PIMPLE: iteration 1
diagonal:  Solving for rho, Initial residual = 0, Final residual = 0, No Iterations 0
smoothSolver:  Solving for Ux, Initial residual = 0.004857511, Final residual = 5.7146345e-07, No Iterations 2
smoothSolver:  Solving for Uy, Initial residual = 0.037635787, Final residual = 6.1581951e-06, No Iterations 2
smoothSolver:  Solving for e, Initial residual = 0.040885268, Final residual = 6.0534847e-06, No Iterations 2
smoothSolver:  Solving for p, Initial residual = 0.021110844, Final residual = 0.0010570943, No Iterations 1
diagonal:  Solving for rho, Initial residual = 0, Final residual = 0, No Iterations 0
time step continuity errors : sum local = 1.9217648e-06, global = 1.5647672e-07, cumulative = 3.2949786e-06
smoothSolver:  Solving for p, Initial residual = 0.0010713141, Final residual = 6.109479e-06, No Iterations 3
diagonal:  Solving for rho, Initial residual = 0, Final residual = 0, No Iterations 0
time step continuity errors : sum local = 1.1525878e-08, global = 6.7622937e-10, cumulative = 3.2956548e-06
smoothSolver:  Solving for nuTilda, Initial residual = 0.0021003465, Final residual = 9.4050437e-08, No Iterations 1
ExecutionTime = 13.23 s  ClockTime = 14 s

forceCoeffs forces write:
    Coefficient	Total	Pressure	Viscous	Internal
    Cd:	20.593816	20.536392	0.057424526	0
    Cd(f):	10.297585	10.268873	0.028712417	0
    Cd(r):	10.296231	10.267519	0.028712109	0
    Cl:	-0.0013539404	-0.001353632	-3.0831478e-07	0
    Cl(f):	-0.00067694761	-0.00067681602	-1.3159094e-07	0
    Cl(r):	-0.00067699274	-0.00067681602	-1.7672384e-07	0
    CmPitch:	2.2566457e-08	6.5413531e-15	2.256645e-08	0
    CmRoll:	0.00067697018	0.00067681602	1.5415739e-07	0
    CmYaw:	10.296908	10.268196	0.028712263	0
    Cs:	3.0375468e-19	3.0252236e-19	1.2323199e-21	0
    Cs(f):	10.296908	10.268196	0.028712263	0
    Cs(r):	-10.296908	-10.268196	-0.028712263	0

    writing force and moment coefficient files.

Courant Number mean: 0.01594142 max: 0.14835542
Time = 0.15

PIMPLE: iteration 1
diagonal:  Solving for rho, Initial residual = 0, Final residual = 0, No Iterations 0
smoothSolver:  Solving for Ux, Initial residual = 0.0045757827, Final residual = 5.6097862e-07, No Iterations 2
smoothSolver:  Solving for Uy, Initial residual = 0.035893867, Final residual = 5.9520833e-06, No Iterations 2
smoothSolver:  Solving for e, Initial residual = 0.041966996, Final residual = 6.2537034e-06, No Iterations 2
smoothSolver:  Solving for p, Initial residual = 0.021165879, Final residual = 0.0010175473, No Iterations 1
diagonal:  Solving for rho, Initial residual = 0, Final residual = 0, No Iterations 0
time step continuity errors : sum local = 1.9385635e-06, global = 1.545363e-07, cumulative = 3.4501911e-06
smoothSolver:  Solving for p, Initial residual = 0.0010445522, Final residual = 5.6720573e-06, No Iterations 3
diagonal:  Solving for rho, Initial residual = 0, Final residual = 0, No Iterations 0
time step continuity errors : sum local = 1.1169105e-08, global = 6.7465788e-10, cumulative = 3.4508658e-06
smoothSolver:  Solving for nuTilda, Initial residual = 0.0020203251, Final residual = 9.0403558e-08, No Iterations 1
ExecutionTime = 13.55 s  ClockTime = 14 s

forceCoeffs forces write:
    Coefficient	Total	Pressure	Viscous	Internal
    Cd:	20.495551	20.437995	0.057555633	0
    Cd(f):	10.248541	10.219763	0.028777997	0
    Cd(r):	10.24701	10.218233	0.028777635	0
    Cl:	-0.0015302494	-0.0015298872	-3.6221974e-07	0
    Cl(f):	-0.00076510007	-0.0007649436	-1.5646748e-07	0
    Cl(r):	-0.00076514936	-0.0007649436	-2.0575226e-07	0
    CmPitch:	2.4642347e-08	-4.5497942e-14	2.4642392e-08	0
    CmRoll:	0.00076512471	0.0007649436	1.8110987e-07	0
    CmYaw:	10.247775	10.218998	0.028777816	0
    Cs:	3.0383334e-19	3.0249516e-19	1.3381837e-21	0
    Cs(f):	10.247775	10.218998	0.028777816	0
    Cs(r):	-10.247775	-10.218998	-0.028777816	0

    writing force and moment coefficient files.

Courant Number mean: 0.015937476 max: 0.1547368
Time = 0.155

PIMPLE: iteration 1
diagonal:  Solving for rho, Initial residual = 0, Final residual = 0, No Iterations 0
smoothSolver:  Solving for Ux, Initial residual = 0.0042826421, Final residual = 5.5395638e-07, No Iterations 2
smoothSolver:  Solving for Uy, Initial residual = 0.033794, Final residual = 5.6978427e-06, No Iterations 2
smoothSolver:  Solving for e, Initial residual = 0.04068178, Final residual = 6.0376634e-06, No Iterations 2
smoothSolver:  Solving for p, Initial residual = 0.020604544, Final residual = 0.0010231768, No Iterations 1
diagonal:  Solving for rho, Initial residual = 0, Final residual = 0, No Iterations 0
time step continuity errors : sum local = 2.0337601e-06, global = 1.6359872e-07, cumulative = 3.6144645e-06
smoothSolver:  Solving for p, Initial residual = 0.0010484243, Final residual = 5.6074792e-06, No Iterations 3
diagonal:  Solving for rho, Initial residual = 0, Final residual = 0, No Iterations 0
time step continuity errors : sum local = 1.150452e-08, global = 7.3288142e-10, cumulative = 3.6151974e-06
smoothSolver:  Solving for nuTilda, Initial residual = 0.0019453648, Final residual = 8.7025896e-08, No Iterations 1
ExecutionTime = 13.87 s  ClockTime = 14 s

forceCoeffs forces write:
    Coefficient	Total	Pressure	Viscous	Internal
    Cd:	20.431259	20.373551	0.057707568	0
    Cd(f):	10.216519	10.187665	0.028854011	0
    Cd(r):	10.21474	10.185886	0.028853557	0
    Cl:	-0.001779189	-0.0017787359	-4.5312093e-07	0
    Cl(f):	-0.00088956377	-0.00088936793	-1.9584142e-07	0
    Cl(r):	-0.0008896252	-0.00088936793	-2.5727952e-07	0
    CmPitch:	3.0718938e-08	-1.1067777e-13	3.0719049e-08	0
    CmRoll:	0.00088959449	0.00088936793	2.2656047e-07	0
    CmYaw:	10.215629	10.186776	0.028853784	0
    Cs:	3.0340346e-19	3.0256115e-19	8.4231697e-22	0
    Cs(f):	10.215629	10.186776	0.028853784	0
    Cs(r):	-10.215629	-10.186776	-0.028853784	0

    writing force and moment coefficient files.

Courant Number mean: 0.015933362 max: 0.16039163
Time = 0.16

PIMPLE: iteration 1
diagonal:  Solving for rho, Initial residual = 0, Final residual = 0, No Iterations 0
smoothSolver:  Solving for Ux, Initial residual = 0.0042839368, Final residual = 5.6532107e-07, No Iterations 2
smoothSolver:  Solving for Uy, Initial residual = 0.033120994, Final residual = 5.5397075e-06, No Iterations 2
smoothSolver:  Solving for e, Initial residual = 0.038320022, Final residual = 5.6111003e-06, No Iterations 2
smoothSolver:  Solving for p, Initial residual = 0.019142894, Final residual = 0.00098181828, No Iterations 1
diagonal:  Solving for rho, Initial residual = 0, Final residual = 0, No Iterations 0
time step continuity errors : sum local = 2.0326685e-06, global = 1.8254322e-07, cumulative = 3.7977406e-06
smoothSolver:  Solving for p, Initial residual = 0.0010074999, Final residual = 5.6183163e-06, No Iterations 3
diagonal:  Solving for rho, Initial residual = 0, Final residual = 0, No Iterations 0
time step continuity errors : sum local = 1.2007493e-08, global = 8.5921351e-10, cumulative = 3.7985998e-06
smoothSolver:  Solving for nuTilda, Initial residual = 0.0018743522, Final residual = 8.3855718e-08, No Iterations 1
ExecutionTime = 14.2 s  ClockTime = 15 s

forceCoeffs forces write:
    Coefficient	Total	Pressure	Viscous	Internal
    Cd:	20.411059	20.353182	0.057877368	0
    Cd(f):	10.206618	10.177679	0.028938986	0
    Cd(r):	10.204441	10.175503	0.028938383	0
    Cl:	-0.0021766717	-0.002176069	-6.02621e-07	0
    Cl(f):	-0.0010882962	-0.0010880345	-2.6165629e-07	0
    Cl(r):	-0.0010883755	-0.0010880345	-3.4096471e-07	0
    CmPitch:	3.965403e-08	-1.8426136e-13	3.9654214e-08	0
    CmRoll:	0.0010883358	0.0010880345	3.013105e-07	0
    CmYaw:	10.20553	10.176591	0.028938684	0
    Cs:	3.0181299e-19	3.0266057e-19	-8.4758347e-22	0
    Cs(f):	10.20553	10.176591	0.028938684	0
    Cs(r):	-10.20553	-10.176591	-0.028938684	0

    writing force and moment coefficient files.

Courant Number mean: 0.015930319 max: 0.16770314
Time = 0.165

PIMPLE: iteration 1
diagonal:  Solving for rho, Initial residual = 0, Final residual = 0, No Iterations 0
smoothSolver:  Solving for Ux, Initial residual = 0.0044894693, Final residual = 5.8431085e-07, No Iterations 2
smoothSolver:  Solving for Uy, Initial residual = 0.033255816, Final residual = 5.5418445e-06, No Iterations 2
smoothSolver:  Solving for e, Initial residual = 0.034922643, Final residual = 5.1283082e-06, No Iterations 2
smoothSolver:  Solving for p, Initial residual = 0.01805115, Final residual = 0.00094083406, No Iterations 1
diagonal:  Solving for rho, Initial residual = 0, Final residual = 0, No Iterations 0
time step continuity errors : sum local = 2.0285623e-06, global = 2.0140581e-07, cumulative = 4.0000056e-06
smoothSolver:  Solving for p, Initial residual = 0.00097413843, Final residual = 5.5181628e-06, No Iterations 3
diagonal:  Solving for rho, Initial residual = 0, Final residual = 0, No Iterations 0
time step continuity errors : sum local = 1.2285497e-08, global = 1.0272498e-09, cumulative = 4.0010329e-06
smoothSolver:  Solving for nuTilda, Initial residual = 0.0018083675, Final residual = 8.0958634e-08, No Iterations 1
ExecutionTime = 14.52 s  ClockTime = 15 s

forceCoeffs forces write:
    Coefficient	Total	Pressure	Viscous	Internal
    Cd:	20.418022	20.359974	0.058047925	0
    Cd(f):	10.210393	10.181368	0.029024387	0
    Cd(r):	10.207629	10.178605	0.029023539	0
    Cl:	-0.0027639705	-0.0027631228	-8.4770593e-07	0
    Cl(f):	-0.0013819277	-0.0013815614	-3.6624653e-07	0
    Cl(r):	-0.0013820429	-0.0013815614	-4.8145941e-07	0
    CmPitch:	5.760614e-08	-3.0089501e-13	5.760644e-08	0
    CmRoll:	0.0013819853	0.0013815614	4.2385297e-07	0
    CmYaw:	10.209011	10.179987	0.029023963	0
    Cs:	2.9930853e-19	3.0269406e-19	-3.3855283e-21	0
    Cs(f):	10.209011	10.179987	0.029023963	0
    Cs(r):	-10.209011	-10.179987	-0.029023963	0

    writing force and moment coefficient files.

Courant Number mean: 0.015927455 max: 0.17424006
Time = 0.17

PIMPLE: iteration 1
diagonal:  Solving for rho, Initial residual = 0, Final residual = 0, No Iterations 0
smoothSolver:  Solving for Ux, Initial residual = 0.0045215994, Final residual = 5.7872986e-07, No Iterations 2
smoothSolver:  Solving for Uy, Initial residual = 0.03269891, Final residual = 5.4354633e-06, No Iterations 2
smoothSolver:  Solving for e, Initial residual = 0.033021192, Final residual = 4.9807896e-06, No Iterations 2
smoothSolver:  Solving for p, Initial residual = 0.018127522, Final residual = 0.00092110782, No Iterations 1
diagonal:  Solving for rho, Initial residual = 0, Final residual = 0, No Iterations 0
time step continuity errors : sum local = 2.0684364e-06, global = 2.0578162e-07, cumulative = 4.2068145e-06
smoothSolver:  Solving for p, Initial residual = 0.00096140266, Final residual = 5.3134823e-06, No Iterations 3
diagonal:  Solving for rho, Initial residual = 0, Final residual = 0, No Iterations 0
time step continuity errors : sum local = 1.2309847e-08, global = 1.2002581e-09, cumulative = 4.2080148e-06
smoothSolver:  Solving for nuTilda, Initial residual = 0.0017478919, Final residual = 7.8586604e-08, No Iterations 1
ExecutionTime = 14.84 s  ClockTime = 15 s

forceCoeffs forces write:
    Coefficient	Total	Pressure	Viscous	Internal
    Cd:	20.404679	20.346477	0.058201947	0
    Cd(f):	10.204113	10.175011	0.029101598	0
    Cd(r):	10.200566	10.171466	0.029100349	0
    Cl:	-0.00354632	-0.0035450708	-1.2492035e-06	0
    Cl(f):	-0.0017730741	-0.0017725354	-5.3869266e-07	0
    Cl(r):	-0.0017732459	-0.0017725354	-7.1051088e-07	0
    CmPitch:	8.5908682e-08	-4.2976569e-13	8.5909112e-08	0
    CmRoll:	0.00177316	0.0017725354	6.2460177e-07	0
    CmYaw:	10.202339	10.173238	0.029100974	0
    Cs:	2.968656e-19	3.0261868e-19	-5.7530794e-21	0
    Cs(f):	10.202339	10.173238	0.029100974	0
    Cs(r):	-10.202339	-10.173238	-0.029100974	0

    writing force and moment coefficient files.

Courant Number mean: 0.015924937 max: 0.17975085
Time = 0.175

PIMPLE: iteration 1
diagonal:  Solving for rho, Initial residual = 0, Final residual = 0, No Iterations 0
smoothSolver:  Solving for Ux, Initial residual = 0.0045101672, Final residual = 5.8235431e-07, No Iterations 2
smoothSolver:  Solving for Uy, Initial residual = 0.031749902, Final residual = 5.2636939e-06, No Iterations 2
smoothSolver:  Solving for e, Initial residual = 0.032202851, Final residual = 4.8264573e-06, No Iterations 2
smoothSolver:  Solving for p, Initial residual = 0.017809833, Final residual = 0.00090591309, No Iterations 1
diagonal:  Solving for rho, Initial residual = 0, Final residual = 0, No Iterations 0
time step continuity errors : sum local = 2.1162387e-06, global = 2.0485722e-07, cumulative = 4.412872e-06
smoothSolver:  Solving for p, Initial residual = 0.00095432472, Final residual = 5.1482065e-06, No Iterations 3
diagonal:  Solving for rho, Initial residual = 0, Final residual = 0, No Iterations 0
time step continuity errors : sum local = 1.2392333e-08, global = 1.3415561e-09, cumulative = 4.4142135e-06
smoothSolver:  Solving for nuTilda, Initial residual = 0.0016911499, Final residual = 7.6551279e-08, No Iterations 1
ExecutionTime = 15.16 s  ClockTime = 15 s

forceCoeffs forces write:
    Coefficient	Total	Pressure	Viscous	Internal
    Cd:	20.317522	20.25919	0.05833244	0
    Cd(f):	10.161025	10.131858	0.029167092	0
    Cd(r):	10.156497	10.127332	0.029165348	0
    Cl:	-0.0045274523	-0.0045257088	-1.7435882e-06	0
    Cl(f):	-0.0022636	-0.0022628544	-7.4565552e-07	0
    Cl(r):	-0.0022638523	-0.0022628544	-9.9793267e-07	0
    CmPitch:	1.2613795e-07	-6.2608098e-13	1.2613858e-07	0
    CmRoll:	0.0022637262	0.0022628544	8.7179409e-07	0
    CmYaw:	10.158761	10.129595	0.02916622	0
    Cs:	2.9589484e-19	3.0244358e-19	-6.54874e-21	0
    Cs(f):	10.158761	10.129595	0.02916622	0
    Cs(r):	-10.158761	-10.129595	-0.02916622	0

    writing force and moment coefficient files.

Courant Number mean: 0.015922568 max: 0.18537551
Time = 0.18

PIMPLE: iteration 1
diagonal:  Solving for rho, Initial residual = 0, Final residual = 0, No Iterations 0
smoothSolver:  Solving for Ux, Initial residual = 0.0044702342, Final residual = 5.8619049e-07, No Iterations 2
smoothSolver:  Solving for Uy, Initial residual = 0.030989103, Final residual = 5.1603351e-06, No Iterations 2
smoothSolver:  Solving for e, Initial residual = 0.030953653, Final residual = 4.6496898e-06, No Iterations 2
smoothSolver:  Solving for p, Initial residual = 0.017242148, Final residual = 0.00089362482, No Iterations 1
diagonal:  Solving for rho, Initial residual = 0, Final residual = 0, No Iterations 0
time step continuity errors : sum local = 2.1683646e-06, global = 2.0449329e-07, cumulative = 4.6187068e-06
smoothSolver:  Solving for p, Initial residual = 0.00094480358, Final residual = 5.0907037e-06, No Iterations 3
diagonal:  Solving for rho, Initial residual = 0, Final residual = 0, No Iterations 0
time step continuity errors : sum local = 1.2712989e-08, global = 1.4308383e-09, cumulative = 4.6201377e-06
smoothSolver:  Solving for nuTilda, Initial residual = 0.0016368736, Final residual = 7.4710637e-08, No Iterations 1
ExecutionTime = 15.48 s  ClockTime = 16 s

forceCoeffs forces write:
    Coefficient	Total	Pressure	Viscous	Internal
    Cd:	20.128068	20.069628	0.058439894	0
    Cd(f):	10.066821	10.0376	0.029221106	0
    Cd(r):	10.061247	10.032029	0.029218788	0
    Cl:	-0.0055735927	-0.0055712744	-2.3183511e-06	0
    Cl(f):	-0.0027866184	-0.0027856372	-9.8116496e-07	0
    Cl(r):	-0.0027869744	-0.0027856372	-1.3371861e-06	0
    CmPitch:	1.7800973e-07	-8.6581735e-13	1.7801059e-07	0
    CmRoll:	0.0027867964	0.0027856372	1.1591756e-06	0
    CmYaw:	10.064034	10.034814	0.029219947	0
    Cs:	2.9732619e-19	3.0221805e-19	-4.8918633e-21	0
    Cs(f):	10.064034	10.034814	0.029219947	0
    Cs(r):	-10.064034	-10.034814	-0.029219947	0

    writing force and moment coefficient files.

Courant Number mean: 0.015920491 max: 0.1920694
Time = 0.185

PIMPLE: iteration 1
diagonal:  Solving for rho, Initial residual = 0, Final residual = 0, No Iterations 0
smoothSolver:  Solving for Ux, Initial residual = 0.0045047979, Final residual = 5.7806077e-07, No Iterations 2
smoothSolver:  Solving for Uy, Initial residual = 0.030511377, Final residual = 5.1162015e-06, No Iterations 2
smoothSolver:  Solving for e, Initial residual = 0.029440048, Final residual = 4.469e-06, No Iterations 2
smoothSolver:  Solving for p, Initial residual = 0.016783824, Final residual = 0.00087172884, No Iterations 1
diagonal:  Solving for rho, Initial residual = 0, Final residual = 0, No Iterations 0
time step continuity errors : sum local = 2.1938927e-06, global = 1.9887437e-07, cumulative = 4.819012e-06
smoothSolver:  Solving for p, Initial residual = 0.00092805792, Final residual = 5.0141459e-06, No Iterations 3
diagonal:  Solving for rho, Initial residual = 0, Final residual = 0, No Iterations 0
time step continuity errors : sum local = 1.2970829e-08, global = 1.4688917e-09, cumulative = 4.8204809e-06
smoothSolver:  Solving for nuTilda, Initial residual = 0.0015844286, Final residual = 7.3024282e-08, No Iterations 1
ExecutionTime = 15.82 s  ClockTime = 16 s

forceCoeffs forces write:
    Coefficient	Total	Pressure	Viscous	Internal
    Cd:	19.830809	19.772275	0.058534296	0
    Cd(f):	9.9187269	9.8894583	0.029268555	0
    Cd(r):	9.912082	9.8828163	0.029265741	0
    Cl:	-0.0066448735	-0.0066420598	-2.8136226e-06	0
    Cl(f):	-0.0033222064	-0.0033210299	-1.1764642e-06	0
    Cl(r):	-0.0033226671	-0.0033210299	-1.6371583e-06	0
    CmPitch:	2.3034591e-07	-1.1270956e-12	2.3034704e-07	0
    CmRoll:	0.0033224367	0.0033210299	1.4068113e-06	0
    CmYaw:	9.9154044	9.8861373	0.029267148	0
    Cs:	3.00544e-19	3.0203426e-19	-1.4902614e-21	0
    Cs(f):	9.9154044	9.8861373	0.029267148	0
    Cs(r):	-9.9154044	-9.8861373	-0.029267148	0

    writing force and moment coefficient files.

Courant Number mean: 0.015919105 max: 0.19773297
Time = 0.19

PIMPLE: iteration 1
diagonal:  Solving for rho, Initial residual = 0, Final residual = 0, No Iterations 0
smoothSolver:  Solving for Ux, Initial residual = 0.0045434641, Final residual = 5.8499757e-07, No Iterations 2
smoothSolver:  Solving for Uy, Initial residual = 0.030036783, Final residual = 5.0252428e-06, No Iterations 2
smoothSolver:  Solving for e, Initial residual = 0.028307216, Final residual = 4.2506357e-06, No Iterations 2
smoothSolver:  Solving for p, Initial residual = 0.016518627, Final residual = 0.0008476834, No Iterations 1
diagonal:  Solving for rho, Initial residual = 0, Final residual = 0, No Iterations 0
time step continuity errors : sum local = 2.2091825e-06, global = 1.8909951e-07, cumulative = 5.0095804e-06
smoothSolver:  Solving for p, Initial residual = 0.00091238189, Final residual = 4.8458463e-06, No Iterations 3
diagonal:  Solving for rho, Initial residual = 0, Final residual = 0, No Iterations 0
time step continuity errors : sum local = 1.2964596e-08, global = 1.495423e-09, cumulative = 5.0110759e-06
smoothSolver:  Solving for nuTilda, Initial residual = 0.0015339197, Final residual = 7.1403415e-08, No Iterations 1
ExecutionTime = 16.15 s  ClockTime = 16 s

forceCoeffs forces write:
    Coefficient	Total	Pressure	Viscous	Internal
    Cd:	19.448791	19.390159	0.058632248	0
    Cd(f):	9.7281679	9.6988503	0.029317619	0
    Cd(r):	9.720623	9.6913083	0.029314629	0
    Cl:	-0.0075449714	-0.007541982	-2.9894541e-06	0
    Cl(f):	-0.0037722054	-0.003770991	-1.214444e-06	0
    Cl(r):	-0.003772766	-0.003770991	-1.7750101e-06	0
    CmPitch:	2.8028179e-07	-1.2652856e-12	2.8028306e-07	0
    CmRoll:	0.0037724857	0.003770991	1.4947271e-06	0
    CmYaw:	9.7243955	9.6950793	0.029316124	0
    Cs:	3.0452437e-19	3.019712e-19	2.5531703e-21	0
    Cs(f):	9.7243955	9.6950793	0.029316124	0
    Cs(r):	-9.7243955	-9.6950793	-0.029316124	0

    writing force and moment coefficient files.

Courant Number mean: 0.015917831 max: 0.20248564
Time = 0.195

PIMPLE: iteration 1
diagonal:  Solving for rho, Initial residual = 0, Final residual = 0, No Iterations 0
smoothSolver:  Solving for Ux, Initial residual = 0.0045447217, Final residual = 5.9965178e-07, No Iterations 2
smoothSolver:  Solving for Uy, Initial residual = 0.029264373, Final residual = 4.9486662e-06, No Iterations 2
smoothSolver:  Solving for e, Initial residual = 0.027492243, Final residual = 4.1382349e-06, No Iterations 2
smoothSolver:  Solving for p, Initial residual = 0.016297147, Final residual = 0.00082647463, No Iterations 1
diagonal:  Solving for rho, Initial residual = 0, Final residual = 0, No Iterations 0
time step continuity errors : sum local = 2.2268939e-06, global = 1.7933133e-07, cumulative = 5.1904072e-06
smoothSolver:  Solving for p, Initial residual = 0.00089607197, Final residual = 4.5719696e-06, No Iterations 3
diagonal:  Solving for rho, Initial residual = 0, Final residual = 0, No Iterations 0
time step continuity errors : sum local = 1.263266e-08, global = 1.5508942e-09, cumulative = 5.1919581e-06
[...]
smoothSolver:  Solving for Uy, Initial residual = 0.02088108, Final residual = 1.9586249e-06, No Iterations 4
smoothSolver:  Solving for e, Initial residual = 0.0080518594, Final residual = 4.3015677e-07, No Iterations 4
smoothSolver:  Solving for p, Initial residual = 0.024223078, Final residual = 0.0012140486, No Iterations 1
diagonal:  Solving for rho, Initial residual = 0, Final residual = 0, No Iterations 0
time step continuity errors : sum local = 1.3797358e-05, global = -2.0828246e-06, cumulative = -0.00010375454
smoothSolver:  Solving for p, Initial residual = 0.0016017232, Final residual = 5.1402665e-06, No Iterations 4
diagonal:  Solving for rho, Initial residual = 0, Final residual = 0, No Iterations 0
time step continuity errors : sum local = 5.8641401e-08, global = -1.2653422e-08, cumulative = -0.0001037672
smoothSolver:  Solving for nuTilda, Initial residual = 0.0013122937, Final residual = 2.5905523e-06, No Iterations 1
ExecutionTime = 179.98 s  ClockTime = 180 s

forceCoeffs forces write:
    Coefficient	Total	Pressure	Viscous	Internal
    Cd:	-0.24723001	-0.30380171	0.056571701	0
    Cd(f):	2.6979057	2.6656259	0.032279811	0
    Cd(r):	-2.9451357	-2.9694276	0.02429189	0
    Cl:	-5.6430413	-5.6350534	-0.0079879213	0
    Cl(f):	-2.8240629	-2.8175267	-0.0065361801	0
    Cl(r):	-2.8189784	-2.8175267	-0.0014517412	0
    CmPitch:	-0.0025422195	-5.3157025e-11	-0.0025422195	0
    CmRoll:	2.8215207	2.8175267	0.0039939606	0
    CmYaw:	-0.123615	-0.15190085	0.028285851	0
    Cs:	2.614991e-19	2.6962116e-19	-8.122057e-21	0
    Cs(f):	-0.123615	-0.15190085	0.028285851	0
    Cs(r):	0.123615	0.15190085	-0.028285851	0

    writing force and moment coefficient files.

Courant Number mean: 0.016908945 max: 0.99916658
Time = 2.65

PIMPLE: iteration 1
diagonal:  Solving for rho, Initial residual = 0, Final residual = 0, No Iterations 0
smoothSolver:  Solving for Ux, Initial residual = 0.011990971, Final residual = 4.1597357e-07, No Iterations 4
smoothSolver:  Solving for Uy, Initial residual = 0.021138373, Final residual = 1.6433677e-06, No Iterations 4
smoothSolver:  Solving for e, Initial residual = 0.0080187233, Final residual = 5.6730586e-07, No Iterations 4
smoothSolver:  Solving for p, Initial residual = 0.024240412, Final residual = 0.0012305442, No Iterations 1
diagonal:  Solving for rho, Initial residual = 0, Final residual = 0, No Iterations 0
time step continuity errors : sum local = 1.4124096e-05, global = -2.4299404e-06, cumulative = -0.00010619714
smoothSolver:  Solving for p, Initial residual = 0.0016229647, Final residual = 5.3889636e-06, No Iterations 4
diagonal:  Solving for rho, Initial residual = 0, Final residual = 0, No Iterations 0
time step continuity errors : sum local = 6.2115596e-08, global = -1.4876212e-08, cumulative = -0.00010621201
smoothSolver:  Solving for nuTilda, Initial residual = 0.0012838311, Final residual = 2.5969472e-06, No Iterations 1
ExecutionTime = 180.32 s  ClockTime = 181 s

forceCoeffs forces write:
    Coefficient	Total	Pressure	Viscous	Internal
    Cd:	0.19856808	0.14198466	0.056583419	0
    Cd(f):	3.3803481	3.3479704	0.03237771	0
    Cd(r):	-3.18178	-3.2059857	0.02420571	0
    Cl:	-6.5621281	-6.5539561	-0.0081720001	0
    Cl(f):	-3.2836471	-3.2769781	-0.0066690759	0
    Cl(r):	-3.278481	-3.2769781	-0.0015029242	0
    CmPitch:	-0.0025830761	-2.2951842e-10	-0.0025830758	0
    CmRoll:	3.2810641	3.2769781	0.0040860001	0
    CmYaw:	0.099284041	0.070992331	0.02829171	0
    Cs:	1.0265882e-19	1.4827511e-19	-4.5616288e-20	0
    Cs(f):	0.099284041	0.070992331	0.02829171	0
    Cs(r):	-0.099284041	-0.070992331	-0.02829171	0

    writing force and moment coefficient files.

Courant Number mean: 0.016909174 max: 1.1064869
Time = 2.655

PIMPLE: iteration 1
diagonal:  Solving for rho, Initial residual = 0, Final residual = 0, No Iterations 0
smoothSolver:  Solving for Ux, Initial residual = 0.012042539, Final residual = 5.0855295e-07, No Iterations 4
smoothSolver:  Solving for Uy, Initial residual = 0.021282751, Final residual = 1.9387362e-06, No Iterations 4
smoothSolver:  Solving for e, Initial residual = 0.0079163678, Final residual = 4.6643515e-07, No Iterations 4
smoothSolver:  Solving for p, Initial residual = 0.02388164, Final residual = 0.0012054193, No Iterations 1
diagonal:  Solving for rho, Initial residual = 0, Final residual = 0, No Iterations 0
time step continuity errors : sum local = 1.3991116e-05, global = -2.7052863e-06, cumulative = -0.0001089173
smoothSolver:  Solving for p, Initial residual = 0.0016298078, Final residual = 5.4841841e-06, No Iterations 4
diagonal:  Solving for rho, Initial residual = 0, Final residual = 0, No Iterations 0
time step continuity errors : sum local = 6.3954356e-08, global = -1.6284322e-08, cumulative = -0.00010893358
smoothSolver:  Solving for nuTilda, Initial residual = 0.0012960971, Final residual = 2.7489864e-06, No Iterations 1
ExecutionTime = 180.66 s  ClockTime = 181 s

forceCoeffs forces write:
    Coefficient	Total	Pressure	Viscous	Internal
    Cd:	0.52125131	0.4645694	0.056681908	0
    Cd(f):	3.9204383	3.8879522	0.032486129	0
    Cd(r):	-3.399187	-3.4233828	0.024195778	0
    Cl:	-7.3196254	-7.311335	-0.0082903511	0
    Cl(f):	-3.6625016	-3.6556675	-0.0068340857	0
    Cl(r):	-3.6571238	-3.6556675	-0.0014562654	0
    CmPitch:	-0.0026889105	-3.6262986e-10	-0.0026889102	0
    CmRoll:	3.6598127	3.6556675	0.0041451755	0
    CmYaw:	0.26062565	0.2322847	0.028340954	0
    Cs:	-2.4239904e-20	5.883408e-20	-8.3073983e-20	0
    Cs(f):	0.26062565	0.2322847	0.028340954	0
    Cs(r):	-0.26062565	-0.2322847	-0.028340954	0

    writing force and moment coefficient files.

Courant Number mean: 0.016912309 max: 1.1586382
Time = 2.66

PIMPLE: iteration 1
diagonal:  Solving for rho, Initial residual = 0, Final residual = 0, No Iterations 0
smoothSolver:  Solving for Ux, Initial residual = 0.01206128, Final residual = 7.1743034e-07, No Iterations 4
smoothSolver:  Solving for Uy, Initial residual = 0.021306544, Final residual = 2.7985644e-06, No Iterations 4
smoothSolver:  Solving for e, Initial residual = 0.0078571656, Final residual = 6.2586418e-07, No Iterations 4
smoothSolver:  Solving for p, Initial residual = 0.024073155, Final residual = 0.0011936187, No Iterations 1
diagonal:  Solving for rho, Initial residual = 0, Final residual = 0, No Iterations 0
time step continuity errors : sum local = 1.4025336e-05, global = -2.8728793e-06, cumulative = -0.00011180646
smoothSolver:  Solving for p, Initial residual = 0.0016156288, Final residual = 5.3136437e-06, No Iterations 4
diagonal:  Solving for rho, Initial residual = 0, Final residual = 0, No Iterations 0
time step continuity errors : sum local = 6.2776898e-08, global = -1.6101067e-08, cumulative = -0.00011182256
smoothSolver:  Solving for nuTilda, Initial residual = 0.00133003, Final residual = 3.395437e-06, No Iterations 1
ExecutionTime = 181 s  ClockTime = 181 s

forceCoeffs forces write:
    Coefficient	Total	Pressure	Viscous	Internal
    Cd:	0.66593906	0.60914669	0.056792368	0
    Cd(f):	4.2497317	4.2171799	0.032551783	0
    Cd(r):	-3.5837926	-3.6080332	0.024240585	0
    Cl:	-7.8335243	-7.8252131	-0.0083111977	0
    Cl(f):	-3.9195649	-3.9126065	-0.0069583993	0
    Cl(r):	-3.9139593	-3.9126065	-0.0013527984	0
    CmPitch:	-0.0028028009	-4.4023836e-10	-0.0028028005	0
    CmRoll:	3.9167621	3.9126065	0.0041555988	0
    CmYaw:	0.33296953	0.30457334	0.028396184	0
    Cs:	-7.6433212e-20	3.014871e-20	-1.0658192e-19	0
    Cs(f):	0.33296953	0.30457334	0.028396184	0
    Cs(r):	-0.33296953	-0.30457334	-0.028396184	0

    writing force and moment coefficient files.

Courant Number mean: 0.0169161 max: 1.1728695
Time = 2.665

PIMPLE: iteration 1
diagonal:  Solving for rho, Initial residual = 0, Final residual = 0, No Iterations 0
smoothSolver:  Solving for Ux, Initial residual = 0.012140858, Final residual = 6.8132047e-07, No Iterations 4
smoothSolver:  Solving for Uy, Initial residual = 0.021263038, Final residual = 2.5873401e-06, No Iterations 4
smoothSolver:  Solving for e, Initial residual = 0.0078238195, Final residual = 4.0193582e-07, No Iterations 4
smoothSolver:  Solving for p, Initial residual = 0.023790521, Final residual = 0.0011590499, No Iterations 1
diagonal:  Solving for rho, Initial residual = 0, Final residual = 0, No Iterations 0
time step continuity errors : sum local = 1.379874e-05, global = -2.9990896e-06, cumulative = -0.00011482165
smoothSolver:  Solving for p, Initial residual = 0.0016158344, Final residual = 4.9986127e-06, No Iterations 4
diagonal:  Solving for rho, Initial residual = 0, Final residual = 0, No Iterations 0
time step continuity errors : sum local = 5.9828845e-08, global = -1.5247508e-08, cumulative = -0.0001148369
smoothSolver:  Solving for nuTilda, Initial residual = 0.0013955127, Final residual = 4.4715388e-06, No Iterations 1
ExecutionTime = 181.34 s  ClockTime = 182 s

forceCoeffs forces write:
    Coefficient	Total	Pressure	Viscous	Internal
    Cd:	0.62083396	0.56387998	0.056953979	0
    Cd(f):	4.2893573	4.2568039	0.032553422	0
    Cd(r):	-3.6685233	-3.6929239	0.024400557	0
    Cl:	-7.9578806	-7.9497278	-0.0081528651	0
    Cl(f):	-3.9818794	-3.9748639	-0.0070155261	0
    Cl(r):	-3.9760012	-3.9748639	-0.001137339	0
    CmPitch:	-0.0029390939	-3.9105624e-10	-0.0029390935	0
    CmRoll:	3.9789403	3.9748639	0.0040764325	0
    CmYaw:	0.31041698	0.28193999	0.02847699	0
    Cs:	-3.3688244e-20	7.0630228e-20	-1.0431847e-19	0
    Cs(f):	0.31041698	0.28193999	0.02847699	0
    Cs(r):	-0.31041698	-0.28193999	-0.02847699	0

    writing force and moment coefficient files.

Courant Number mean: 0.016922268 max: 1.1417793
Time = 2.67

PIMPLE: iteration 1
diagonal:  Solving for rho, Initial residual = 0, Final residual = 0, No Iterations 0
smoothSolver:  Solving for Ux, Initial residual = 0.012156713, Final residual = 6.9005594e-07, No Iterations 4
smoothSolver:  Solving for Uy, Initial residual = 0.021038182, Final residual = 2.3241721e-06, No Iterations 4
smoothSolver:  Solving for e, Initial residual = 0.007755615, Final residual = 5.9199344e-07, No Iterations 4
smoothSolver:  Solving for p, Initial residual = 0.023921857, Final residual = 0.0011524582, No Iterations 1
diagonal:  Solving for rho, Initial residual = 0, Final residual = 0, No Iterations 0
time step continuity errors : sum local = 1.3902647e-05, global = -3.0624777e-06, cumulative = -0.00011789938
smoothSolver:  Solving for p, Initial residual = 0.0015962885, Final residual = 4.6376329e-06, No Iterations 4
diagonal:  Solving for rho, Initial residual = 0, Final residual = 0, No Iterations 0
time step continuity errors : sum local = 5.6257933e-08, global = -1.4251551e-08, cumulative = -0.00011791363
smoothSolver:  Solving for nuTilda, Initial residual = 0.0014424758, Final residual = 5.3512131e-06, No Iterations 1
ExecutionTime = 181.68 s  ClockTime = 182 s

forceCoeffs forces write:
    Coefficient	Total	Pressure	Viscous	Internal
    Cd:	0.41089129	0.35369672	0.057194576	0
    Cd(f):	3.9630681	3.9305495	0.032518628	0
    Cd(r):	-3.5521768	-3.5768528	0.024675948	0
    Cl:	-7.515245	-7.5074023	-0.0078426803	0
    Cl(f):	-3.760726	-3.7537011	-0.0070248494	0
    Cl(r):	-3.754519	-3.7537011	-0.00081783087	0
    CmPitch:	-0.0031035094	-1.7631491e-10	-0.0031035093	0
    CmRoll:	3.7576225	3.7537011	0.0039213401	0
    CmYaw:	0.20544565	0.17684836	0.028597288	0
    Cs:	8.2982799e-20	1.6014964e-19	-7.7166843e-20	0
    Cs(f):	0.20544565	0.17684836	0.028597288	0
    Cs(r):	-0.20544565	-0.17684836	-0.028597288	0

    writing force and moment coefficient files.

Courant Number mean: 0.016928293 max: 1.1110556
Time = 2.675

PIMPLE: iteration 1
diagonal:  Solving for rho, Initial residual = 0, Final residual = 0, No Iterations 0
smoothSolver:  Solving for Ux, Initial residual = 0.012237586, Final residual = 6.7215644e-07, No Iterations 4
smoothSolver:  Solving for Uy, Initial residual = 0.021021127, Final residual = 2.33294e-06, No Iterations 4
smoothSolver:  Solving for e, Initial residual = 0.0077645361, Final residual = 7.1694869e-07, No Iterations 4
smoothSolver:  Solving for p, Initial residual = 0.023903247, Final residual = 0.0011502497, No Iterations 1
diagonal:  Solving for rho, Initial residual = 0, Final residual = 0, No Iterations 0
time step continuity errors : sum local = 1.4060412e-05, global = -3.0065263e-06, cumulative = -0.00012092016
smoothSolver:  Solving for p, Initial residual = 0.0016471004, Final residual = 4.5744137e-06, No Iterations 4
diagonal:  Solving for rho, Initial residual = 0, Final residual = 0, No Iterations 0
time step continuity errors : sum local = 5.6175129e-08, global = -1.3740648e-08, cumulative = -0.0001209339
smoothSolver:  Solving for nuTilda, Initial residual = 0.0014854541, Final residual = 5.3140779e-06, No Iterations 1
ExecutionTime = 182.03 s  ClockTime = 182 s

forceCoeffs forces write:
    Coefficient	Total	Pressure	Viscous	Internal
    Cd:	0.1006424	0.043123131	0.057519268	0
    Cd(f):	3.2821446	3.2496326	0.032512045	0
    Cd(r):	-3.1815022	-3.2065095	0.025007224	0
    Cl:	-6.4636469	-6.4561421	-0.0075048208	0
    Cl(f):	-3.2351156	-3.228071	-0.007044602	0
    Cl(r):	-3.2285313	-3.228071	-0.00046021886	0
    CmPitch:	-0.0032921915	8.9609155e-11	-0.0032921916	0
    CmRoll:	3.2318234	3.228071	0.0037524104	0
    CmYaw:	0.0503212	0.021561566	0.028759634	0
    Cs:	2.1802102e-19	2.5732583e-19	-3.9304813e-20	0
    Cs(f):	0.0503212	0.021561566	0.028759634	0
    Cs(r):	-0.0503212	-0.021561566	-0.028759634	0

    writing force and moment coefficient files.

Courant Number mean: 0.01693044 max: 1.0795932
Time = 2.68

PIMPLE: iteration 1
diagonal:  Solving for rho, Initial residual = 0, Final residual = 0, No Iterations 0
smoothSolver:  Solving for Ux, Initial residual = 0.012213311, Final residual = 7.9433507e-07, No Iterations 4
smoothSolver:  Solving for Uy, Initial residual = 0.021095628, Final residual = 2.3316102e-06, No Iterations 4
smoothSolver:  Solving for e, Initial residual = 0.0077016912, Final residual = 6.0814853e-07, No Iterations 4
smoothSolver:  Solving for p, Initial residual = 0.023860465, Final residual = 0.0011521557, No Iterations 1
diagonal:  Solving for rho, Initial residual = 0, Final residual = 0, No Iterations 0
time step continuity errors : sum local = 1.4282919e-05, global = -2.9181459e-06, cumulative = -0.00012385204
smoothSolver:  Solving for p, Initial residual = 0.0016265914, Final residual = 4.6333429e-06, No Iterations 4
diagonal:  Solving for rho, Initial residual = 0, Final residual = 0, No Iterations 0
time step continuity errors : sum local = 5.7735644e-08, global = -1.3159297e-08, cumulative = -0.0001238652
smoothSolver:  Solving for nuTilda, Initial residual = 0.0014804528, Final residual = 4.6101121e-06, No Iterations 1
ExecutionTime = 182.36 s  ClockTime = 183 s

forceCoeffs forces write:
    Coefficient	Total	Pressure	Viscous	Internal
    Cd:	-0.22415323	-0.28204699	0.057893755	0
    Cd(f):	2.3886594	2.3560569	0.032602448	0
    Cd(r):	-2.6128126	-2.6381039	0.025291307	0
    Cl:	-5.0014719	-4.9941608	-0.0073111405	0
    Cl(f):	-2.5042213	-2.4970804	-0.0071408651	0
    Cl(r):	-2.4972507	-2.4970804	-0.00017027545	0
    CmPitch:	-0.0034852946	2.1215509e-10	-0.0034852948	0
    CmRoll:	2.500736	2.4970804	0.0036555703	0
    CmYaw:	-0.11207662	-0.14102349	0.028946877	0
    Cs:	3.2172321e-19	3.2116106e-19	5.6215436e-22	0
    Cs(f):	-0.11207662	-0.14102349	0.028946877	0
    Cs(r):	0.11207662	0.14102349	-0.028946877	0

    writing force and moment coefficient files.

Courant Number mean: 0.01693037 max: 1.1175421
Time = 2.685

PIMPLE: iteration 1
diagonal:  Solving for rho, Initial residual = 0, Final residual = 0, No Iterations 0
smoothSolver:  Solving for Ux, Initial residual = 0.012209566, Final residual = 8.149457e-07, No Iterations 4
smoothSolver:  Solving for Uy, Initial residual = 0.021547091, Final residual = 2.6305052e-06, No Iterations 4
smoothSolver:  Solving for e, Initial residual = 0.0076443579, Final residual = 6.4606278e-07, No Iterations 4
smoothSolver:  Solving for p, Initial residual = 0.023446497, Final residual = 0.0011124387, No Iterations 1
diagonal:  Solving for rho, Initial residual = 0, Final residual = 0, No Iterations 0
time step continuity errors : sum local = 1.3980625e-05, global = -2.6836313e-06, cumulative = -0.00012654883
smoothSolver:  Solving for p, Initial residual = 0.0015956045, Final residual = 4.6293628e-06, No Iterations 4
diagonal:  Solving for rho, Initial residual = 0, Final residual = 0, No Iterations 0
time step continuity errors : sum local = 5.8439376e-08, global = -1.2290645e-08, cumulative = -0.00012656112
smoothSolver:  Solving for nuTilda, Initial residual = 0.0014391351, Final residual = 3.9788079e-06, No Iterations 1
ExecutionTime = 182.71 s  ClockTime = 183 s

forceCoeffs forces write:
    Coefficient	Total	Pressure	Viscous	Internal
    Cd:	-0.4679121	-0.52611128	0.058199173	0
    Cd(f):	1.5499713	1.5171701	0.032801224	0
    Cd(r):	-2.0178834	-2.0432813	0.025397949	0
    Cl:	-3.5678547	-3.5604514	-0.007403275	0
    Cl(f):	-1.7875515	-1.7802257	-0.0073258377	0
    Cl(r):	-1.7803031	-1.7802257	-7.7437251e-05	0
    CmPitch:	-0.0036242001	8.1432849e-11	-0.0036242002	0
    CmRoll:	1.7839273	1.7802257	0.0037016375	0
    CmYaw:	-0.23395605	-0.26305564	0.029099586	0
    Cs:	3.6825393e-19	3.3158893e-19	3.6665003e-20	0
    Cs(f):	-0.23395605	-0.26305564	0.029099586	0
    Cs(r):	0.23395605	0.26305564	-0.029099586	0

    writing force and moment coefficient files.

Courant Number mean: 0.016926613 max: 1.1918786
Time = 2.69

PIMPLE: iteration 1
diagonal:  Solving for rho, Initial residual = 0, Final residual = 0, No Iterations 0
smoothSolver:  Solving for Ux, Initial residual = 0.012296916, Final residual = 9.5947678e-07, No Iterations 4
smoothSolver:  Solving for Uy, Initial residual = 0.022140398, Final residual = 2.6818209e-06, No Iterations 4
smoothSolver:  Solving for e, Initial residual = 0.0074651576, Final residual = 1.1165978e-06, No Iterations 4
smoothSolver:  Solving for p, Initial residual = 0.023467068, Final residual = 0.0010466367, No Iterations 1
diagonal:  Solving for rho, Initial residual = 0, Final residual = 0, No Iterations 0
time step continuity errors : sum local = 1.3391954e-05, global = -2.4539101e-06, cumulative = -0.00012901503
smoothSolver:  Solving for p, Initial residual = 0.0016481287, Final residual = 4.3673729e-06, No Iterations 4
diagonal:  Solving for rho, Initial residual = 0, Final residual = 0, No Iterations 0
time step continuity errors : sum local = 5.6136828e-08, global = -1.0084547e-08, cumulative = -0.00012902512
smoothSolver:  Solving for nuTilda, Initial residual = 0.0014358109, Final residual = 3.5884694e-06, No Iterations 1
ExecutionTime = 183.05 s  ClockTime = 183 s

forceCoeffs forces write:
    Coefficient	Total	Pressure	Viscous	Internal
    Cd:	-0.5716804	-0.62999256	0.058312168	0
    Cd(f):	1.0123441	0.9793026	0.033041475	0
    Cd(r):	-1.5840245	-1.6092952	0.025270693	0
    Cl:	-2.5963686	-2.5885978	-0.007770782	0
    Cl(f):	-1.3018407	-1.2942989	-0.0075417993	0
    Cl(r):	-1.2945279	-1.2942989	-0.00022898273	0
    CmPitch:	-0.0036564085	-2.0880446e-10	-0.0036564083	0
    CmRoll:	1.2981843	1.2942989	0.003885391	0
    CmYaw:	-0.2858402	-0.31499628	0.029156084	0
    Cs:	3.6908197e-19	3.0530642e-19	6.3775547e-20	0
    Cs(f):	-0.2858402	-0.31499628	0.029156084	0
    Cs(r):	0.2858402	0.31499628	-0.029156084	0

    writing force and moment coefficient files.

Courant Number mean: 0.016928307 max: 1.6742233
Time = 2.695

PIMPLE: iteration 1
diagonal:  Solving for rho, Initial residual = 0, Final residual = 0, No Iterations 0
smoothSolver:  Solving for Ux, Initial residual = 0.012370875, Final residual = 1.2363358e-06, No Iterations 4
smoothSolver:  Solving for Uy, Initial residual = 0.022312577, Final residual = 4.9242136e-06, No Iterations 4
smoothSolver:  Solving for e, Initial residual = 0.0073436766, Final residual = 1.1477352e-06, No Iterations 4
