/*---------------------------------------------------------------------------*\
| =========                 |                                                 |
| \\      /  F ield         | OpenFOAM: The Open Source CFD Toolbox           |
|  \\    /   O peration     | Version:  2406                                  |
|   \\  /    A nd           | Website:  www.openfoam.com                      |
|    \\/     M anipulation  |                                                 |
\*---------------------------------------------------------------------------*/
Build  : _be01ca78-20240625 OPENFOAM=2406 version=2406
Arch   : "LSB;label=32;scalar=64"
Exec   : rhoPimpleFoam
Date   : Oct 28 2024
Time   : 11:20:49
Host   : jakub-Lenovo-ideapad-330-15ICH
PID    : 51203
I/O    : uncollated
Case   : /home/jakub/AE4202/CFD_assignment
nProcs : 1
trapFpe: Floating point exception trapping enabled (FOAM_SIGFPE).
fileModificationChecking : Monitoring run-time modified files using timeStampMaster (fileModificationSkew 5, maxFileModificationPolls 20)
allowSystemOperations : Allowing user-supplied system call operations

// * * * * * * * * * * * * * * * * * * * * * * * * * * * * * * * * * * * * * //
Create time

Create mesh for time = 0


PIMPLE: Operating solver in PISO mode

Reading thermophysical properties

Selecting thermodynamics package 
{
    type            hePsiThermo;
    mixture         pureMixture;
    transport       sutherland;
    thermo          hConst;
    equationOfState perfectGas;
    specie          specie;
    energy          sensibleInternalEnergy;
}

Reading field U

Reading/calculating face flux field phi

Creating turbulence model

Selecting turbulence model type RAS
Selecting RAS turbulence model kOmegaSST
Selecting patchDistMethod meshWave
RAS
{
    RASModel        kOmegaSST;
    turbulence      on;
    printCoeffs     on;
    alphaK1         0.85;
    alphaK2         1;
    alphaOmega1     0.5;
    alphaOmega2     0.856;
    gamma1          0.55555556;
    gamma2          0.44;
    beta1           0.075;
    beta2           0.0828;
    betaStar        0.09;
    a1              0.31;
    b1              1;
    c1              10;
    F3              false;
    decayControl    false;
    kInf            0;
    omegaInf        0;
}

Creating field dpdt

Creating field kinetic energy K

No MRF models present

No finite volume options present
Courant Number mean: 0.0053097365 max: 0.15343261

Starting time loop

fieldAverage fieldAverage1:
    Restarting averaging for fields:
        U: starting averaging at time 0
        p: starting averaging at time 0
        nut: starting averaging at time 0
        T: starting averaging at time 0

forceCoeffs forces:
    p: p
    U: U
    rho: rhoInf
    Freestream density (rhoInf) set to 1
    Not including porosity effects
    magUInf: 0.17748239
    lRef   : 1
    Aref   : 1
    rhoInf : 1
    Selecting all coefficients
    - Drag force: Cd
    - Drag force front: Cd(f)
    - Drag force rear: Cd(r)
    - Lift force: Cl
    - Lift force front: Cl(f)
    - Lift force rear: Cl(r)
    - Pitch moment: CmPitch
    - Roll moment: CmRoll
    - Yaw moment: CmYaw
    - Side force: Cs
    - Side force front: Cs(f)
    - Side force rear: Cs(r)


Sampled set:
    top -> raw
    bottom -> raw

Courant Number mean: 0.0053097365 max: 0.15343261
Time = 0.001

PIMPLE: iteration 1
diagonal:  Solving for rho, Initial residual = 0, Final residual = 0, No Iterations 0
smoothSolver:  Solving for Ux, Initial residual = 0.99999924, Final residual = 8.2308397e-06, No Iterations 2
smoothSolver:  Solving for Uy, Initial residual = 1, Final residual = 1.2725711e-09, No Iterations 4
smoothSolver:  Solving for e, Initial residual = 0.99966928, Final residual = 2.68886e-08, No Iterations 4
smoothSolver:  Solving for p, Initial residual = 1, Final residual = 0.07713412, No Iterations 1
diagonal:  Solving for rho, Initial residual = 0, Final residual = 0, No Iterations 0
time step continuity errors : sum local = 7.7506535e-07, global = -4.5537004e-08, cumulative = -4.5537004e-08
smoothSolver:  Solving for p, Initial residual = 0.039895788, Final residual = 3.8247032e-06, No Iterations 5
diagonal:  Solving for rho, Initial residual = 0, Final residual = 0, No Iterations 0
time step continuity errors : sum local = 1.2870265e-10, global = 3.1860509e-12, cumulative = -4.5533818e-08
DILUPBiCGStab:  Solving for omega, Initial residual = 0.0004318378, Final residual = 7.0986393e-11, No Iterations 1
smoothSolver:  Solving for k, Initial residual = 1, Final residual = 2.6093484e-08, No Iterations 2
ExecutionTime = 3.45 s  ClockTime = 3 s

forceCoeffs forces write:
    Coefficient	Total	Pressure	Viscous	Internal
    Cd:	14.720997	14.446262	0.27473552	0
    Cd(f):	7.3586311	7.22125	0.13738107	0
    Cd(r):	7.3623661	7.2250116	0.13735445	0
    Cl:	0.0037350189	0.0037616306	-2.6611656e-05	0
    Cl(f):	0.001862986	0.0018808153	-1.7829321e-05	0
    Cl(r):	0.0018720329	0.0018808153	-8.7823348e-06	0
    CmPitch:	-4.5234859e-06	7.3711677e-12	-4.5234933e-06	0
    CmRoll:	-0.0018675094	-0.0018808153	1.3305828e-05	0
    CmYaw:	7.3604986	7.2231308	0.13736776	0
    Cs:	3.1300974e-19	3.1260308e-19	4.066651e-22	0
    Cs(f):	7.3604986	7.2231308	0.13736776	0
    Cs(r):	-7.3604986	-7.2231308	-0.13736776	0

    writing force and moment coefficient files.

Courant Number mean: 0.0053049545 max: 0.14330422
Time = 0.002

PIMPLE: iteration 1
diagonal:  Solving for rho, Initial residual = 0, Final residual = 0, No Iterations 0
smoothSolver:  Solving for Ux, Initial residual = 0.0090275851, Final residual = 1.9779485e-06, No Iterations 2
smoothSolver:  Solving for Uy, Initial residual = 0.3276972, Final residual = 1.5684212e-08, No Iterations 4
smoothSolver:  Solving for e, Initial residual = 0.059537165, Final residual = 1.0905739e-08, No Iterations 4
smoothSolver:  Solving for p, Initial residual = 0.21194505, Final residual = 0.0088225858, No Iterations 1
diagonal:  Solving for rho, Initial residual = 0, Final residual = 0, No Iterations 0
time step continuity errors : sum local = 3.9702056e-07, global = -1.7481597e-08, cumulative = -6.3015415e-08
smoothSolver:  Solving for p, Initial residual = 0.0085516564, Final residual = 1.3376328e-06, No Iterations 3
diagonal:  Solving for rho, Initial residual = 0, Final residual = 0, No Iterations 0
time step continuity errors : sum local = 7.8492658e-11, global = 1.4061056e-11, cumulative = -6.3001354e-08
DILUPBiCGStab:  Solving for omega, Initial residual = 0.00033123748, Final residual = 1.7950115e-12, No Iterations 1
smoothSolver:  Solving for k, Initial residual = 0.079196909, Final residual = 7.0881976e-07, No Iterations 1
ExecutionTime = 3.81 s  ClockTime = 4 s

forceCoeffs forces write:
    Coefficient	Total	Pressure	Viscous	Internal
    Cd:	22.80334	22.576816	0.22652394	0
    Cd(f):	11.400999	11.287719	0.11327943	0
    Cd(r):	11.402341	11.289097	0.11324451	0
    Cl:	0.0013422501	0.0013771624	-3.4912284e-05	0
    Cl(f):	0.00066605566	0.00068858119	-2.2525531e-05	0
    Cl(r):	0.00067619448	0.00068858124	-1.2386753e-05	0
    CmPitch:	-5.0694135e-06	-2.445838e-11	-5.069389e-06	0
    CmRoll:	-0.00067112507	-0.00068858121	1.7456142e-05	0
    CmYaw:	11.40167	11.288408	0.11326197	0
    Cs:	3.3107456e-19	3.309083e-19	1.6625442e-22	0
    Cs(f):	11.40167	11.288408	0.11326197	0
    Cs(r):	-11.40167	-11.288408	-0.11326197	0

    writing force and moment coefficient files.

Courant Number mean: 0.005299196 max: 0.13996848
Time = 0.003

PIMPLE: iteration 1
diagonal:  Solving for rho, Initial residual = 0, Final residual = 0, No Iterations 0
smoothSolver:  Solving for Ux, Initial residual = 0.0057194461, Final residual = 1.10808e-06, No Iterations 2
smoothSolver:  Solving for Uy, Initial residual = 0.23665892, Final residual = 1.0278156e-08, No Iterations 4
smoothSolver:  Solving for e, Initial residual = 0.028864251, Final residual = 5.9100237e-09, No Iterations 4
smoothSolver:  Solving for p, Initial residual = 0.1374592, Final residual = 0.0071451202, No Iterations 1
diagonal:  Solving for rho, Initial residual = 0, Final residual = 0, No Iterations 0
time step continuity errors : sum local = 4.9417522e-07, global = -1.2213899e-08, cumulative = -7.5215253e-08
smoothSolver:  Solving for p, Initial residual = 0.0077078518, Final residual = 1.3197986e-06, No Iterations 3
diagonal:  Solving for rho, Initial residual = 0, Final residual = 0, No Iterations 0
time step continuity errors : sum local = 9.6945314e-11, global = 2.3829996e-11, cumulative = -7.5191423e-08
DILUPBiCGStab:  Solving for omega, Initial residual = 0.00027390169, Final residual = 4.159765e-13, No Iterations 1
smoothSolver:  Solving for k, Initial residual = 0.036527712, Final residual = 3.340267e-07, No Iterations 1
ExecutionTime = 4.15 s  ClockTime = 4 s

forceCoeffs forces write:
    Coefficient	Total	Pressure	Viscous	Internal
    Cd:	26.451407	26.265302	0.18610426	0
    Cd(f):	13.226284	13.13322	0.093064494	0
    Cd(r):	13.225123	13.132083	0.093039763	0
    Cl:	-0.0011615814	-0.0011368502	-2.4731179e-05	0
    Cl(f):	-0.00058545631	-0.00056842515	-1.7031157e-05	0
    Cl(r):	-0.00057612506	-0.00056842504	-7.7000221e-06	0
    CmPitch:	-4.6656232e-06	-5.5877121e-11	-4.6655673e-06	0
    CmRoll:	0.00058079068	0.0005684251	1.2365589e-05	0
    CmYaw:	13.225703	13.132651	0.093052128	0
    Cs:	3.4000874e-19	3.3985666e-19	1.5207909e-22	0
    Cs(f):	13.225703	13.132651	0.093052128	0
    Cs(r):	-13.225703	-13.132651	-0.093052128	0

    writing force and moment coefficient files.

Courant Number mean: 0.005293567 max: 0.13698687
Time = 0.004

PIMPLE: iteration 1
diagonal:  Solving for rho, Initial residual = 0, Final residual = 0, No Iterations 0
smoothSolver:  Solving for Ux, Initial residual = 0.0039847194, Final residual = 8.3448123e-07, No Iterations 2
smoothSolver:  Solving for Uy, Initial residual = 0.17754757, Final residual = 9.0092112e-09, No Iterations 4
smoothSolver:  Solving for e, Initial residual = 0.019859105, Final residual = 8.5984086e-06, No Iterations 2
smoothSolver:  Solving for p, Initial residual = 0.12622972, Final residual = 0.0066305362, No Iterations 1
diagonal:  Solving for rho, Initial residual = 0, Final residual = 0, No Iterations 0
time step continuity errors : sum local = 5.485173e-07, global = -7.2639991e-09, cumulative = -8.2455422e-08
smoothSolver:  Solving for p, Initial residual = 0.0068763738, Final residual = 1.1268017e-06, No Iterations 3
diagonal:  Solving for rho, Initial residual = 0, Final residual = 0, No Iterations 0
time step continuity errors : sum local = 1.0175178e-10, global = 2.7892551e-11, cumulative = -8.2427529e-08
DILUPBiCGStab:  Solving for omega, Initial residual = 0.00026630286, Final residual = 1.5621058e-13, No Iterations 1
smoothSolver:  Solving for k, Initial residual = 0.022663186, Final residual = 2.6287868e-07, No Iterations 1
ExecutionTime = 4.49 s  ClockTime = 4 s

forceCoeffs forces write:
    Coefficient	Total	Pressure	Viscous	Internal
    Cd:	26.570578	26.411508	0.15907016	0
    Cd(f):	13.286491	13.206952	0.079538668	0
    Cd(r):	13.284087	13.204556	0.07953149	0
    Cl:	-0.0024037207	-0.0023965426	-7.1781416e-06	0
    Cl(f):	-0.0012060889	-0.0011982714	-7.8175749e-06	0
    Cl(r):	-0.0011976318	-0.0011982712	6.3943325e-07	0
    CmPitch:	-4.2285783e-06	-7.4241728e-11	-4.2285041e-06	0
    CmRoll:	0.0012018604	0.0011982713	3.5890708e-06	0
    CmYaw:	13.285289	13.205754	0.079535079	0
    Cs:	3.4098396e-19	3.408089e-19	1.7505479e-22	0
    Cs(f):	13.285289	13.205754	0.079535079	0
    Cs(r):	-13.285289	-13.205754	-0.079535079	0

    writing force and moment coefficient files.

Courant Number mean: 0.0052883974 max: 0.13412118
Time = 0.005

PIMPLE: iteration 1
diagonal:  Solving for rho, Initial residual = 0, Final residual = 0, No Iterations 0
smoothSolver:  Solving for Ux, Initial residual = 0.0028600672, Final residual = 6.3136264e-07, No Iterations 2
smoothSolver:  Solving for Uy, Initial residual = 0.13372585, Final residual = 7.0742652e-09, No Iterations 4
smoothSolver:  Solving for e, Initial residual = 0.01684538, Final residual = 6.9019336e-06, No Iterations 2
smoothSolver:  Solving for p, Initial residual = 0.12914951, Final residual = 0.0057429487, No Iterations 1
diagonal:  Solving for rho, Initial residual = 0, Final residual = 0, No Iterations 0
time step continuity errors : sum local = 5.6664375e-07, global = -3.5709143e-09, cumulative = -8.5998444e-08
smoothSolver:  Solving for p, Initial residual = 0.0061138665, Final residual = 8.9656576e-07, No Iterations 3
diagonal:  Solving for rho, Initial residual = 0, Final residual = 0, No Iterations 0
time step continuity errors : sum local = 9.3548823e-11, global = 2.4630272e-11, cumulative = -8.5973813e-08
DILUPBiCGStab:  Solving for omega, Initial residual = 0.00027963366, Final residual = 1.1566828e-13, No Iterations 1
smoothSolver:  Solving for k, Initial residual = 0.016110516, Final residual = 2.2204541e-07, No Iterations 1
ExecutionTime = 4.83 s  ClockTime = 5 s

forceCoeffs forces write:
    Coefficient	Total	Pressure	Viscous	Internal
    Cd:	24.167086	24.01932	0.14776577	0
    Cd(f):	12.084636	12.010756	0.073879268	0
    Cd(r):	12.082451	12.008564	0.073886505	0
    Cl:	-0.0021850419	-0.0021922793	7.2374828e-06	0
    Cl(f):	-0.0010964283	-0.0010961398	-2.8858457e-07	0
    Cl(r):	-0.0010886135	-0.0010961396	7.5260674e-06	0
    CmPitch:	-3.9074054e-06	-7.9404756e-11	-3.907326e-06	0
    CmRoll:	0.0010925209	0.0010961397	-3.6187414e-06	0
    CmYaw:	12.083543	12.00966	0.073882886	0
    Cs:	3.3594817e-19	3.3577809e-19	1.7007687e-22	0
    Cs(f):	12.083543	12.00966	0.073882886	0
    Cs(r):	-12.083543	-12.00966	-0.073882886	0

    writing force and moment coefficient files.

Courant Number mean: 0.005283982 max: 0.13132776
Time = 0.006

PIMPLE: iteration 1
diagonal:  Solving for rho, Initial residual = 0, Final residual = 0, No Iterations 0
smoothSolver:  Solving for Ux, Initial residual = 0.0020736803, Final residual = 5.0631445e-07, No Iterations 2
smoothSolver:  Solving for Uy, Initial residual = 0.10009608, Final residual = 5.6334495e-09, No Iterations 4
smoothSolver:  Solving for e, Initial residual = 0.016475141, Final residual = 5.8906526e-06, No Iterations 2
smoothSolver:  Solving for p, Initial residual = 0.11564389, Final residual = 0.0048395144, No Iterations 1
diagonal:  Solving for rho, Initial residual = 0, Final residual = 0, No Iterations 0
time step continuity errors : sum local = 5.4283402e-07, global = -2.5102322e-09, cumulative = -8.8484045e-08
smoothSolver:  Solving for p, Initial residual = 0.0053581386, Final residual = 6.4166711e-07, No Iterations 3
diagonal:  Solving for rho, Initial residual = 0, Final residual = 0, No Iterations 0
time step continuity errors : sum local = 7.4194058e-11, global = 1.9153918e-11, cumulative = -8.8464892e-08
DILUPBiCGStab:  Solving for omega, Initial residual = 0.00027125036, Final residual = 1.5634422e-13, No Iterations 1
smoothSolver:  Solving for k, Initial residual = 0.012306482, Final residual = 1.6465468e-07, No Iterations 1
ExecutionTime = 5.17 s  ClockTime = 5 s

forceCoeffs forces write:
    Coefficient	Total	Pressure	Viscous	Internal
    Cd:	21.258794	21.109142	0.14965196	0
    Cd(f):	10.629853	10.555034	0.074819365	0
    Cd(r):	10.628941	10.554109	0.074832599	0
    Cl:	-0.000911592	-0.0009248256	1.3233603e-05	0
    Cl(f):	-0.00045961051	-0.00046241287	2.8023612e-06	0
    Cl(r):	-0.00045198149	-0.00046241273	1.0431242e-05	0
    CmPitch:	-3.8145136e-06	-7.3065546e-11	-3.8144405e-06	0
    CmRoll:	0.000455796	0.0004624128	-6.6168017e-06	0
    CmYaw:	10.629397	10.554571	0.074825982	0
    Cs:	3.2940428e-19	3.2923672e-19	1.6755467e-22	0
    Cs(f):	10.629397	10.554571	0.074825982	0
    Cs(r):	-10.629397	-10.554571	-0.074825982	0

    writing force and moment coefficient files.

Courant Number mean: 0.0052785934 max: 0.1285629
Time = 0.007

PIMPLE: iteration 1
diagonal:  Solving for rho, Initial residual = 0, Final residual = 0, No Iterations 0
smoothSolver:  Solving for Ux, Initial residual = 0.0019257012, Final residual = 4.1146361e-07, No Iterations 2
smoothSolver:  Solving for Uy, Initial residual = 0.095351019, Final residual = 4.6484332e-09, No Iterations 4
smoothSolver:  Solving for e, Initial residual = 0.014486414, Final residual = 5.0136972e-06, No Iterations 2
smoothSolver:  Solving for p, Initial residual = 0.10083516, Final residual = 0.0043113649, No Iterations 1
diagonal:  Solving for rho, Initial residual = 0, Final residual = 0, No Iterations 0
time step continuity errors : sum local = 5.5086195e-07, global = -1.4433215e-09, cumulative = -8.9908213e-08
smoothSolver:  Solving for p, Initial residual = 0.0041221618, Final residual = 7.9936062e-06, No Iterations 2
diagonal:  Solving for rho, Initial residual = 0, Final residual = 0, No Iterations 0
time step continuity errors : sum local = 1.1996665e-09, global = 2.0189268e-10, cumulative = -8.970632e-08
DILUPBiCGStab:  Solving for omega, Initial residual = 0.00024220401, Final residual = 1.2597203e-13, No Iterations 1
smoothSolver:  Solving for k, Initial residual = 0.0098118431, Final residual = 1.1019181e-07, No Iterations 1
ExecutionTime = 5.51 s  ClockTime = 5 s

forceCoeffs forces write:
    Coefficient	Total	Pressure	Viscous	Internal
    Cd:	19.517496	19.359777	0.15771892	0
    Cd(f):	9.7586274	9.6797737	0.07885373	0
    Cd(r):	9.7588687	9.6800035	0.07886519	0
    Cl:	0.00024120491	0.00022974453	1.146037e-05	0
    Cl(f):	0.00011669555	0.00011487221	1.8233457e-06	0
    Cl(r):	0.00012450935	0.00011487233	9.6370245e-06	0
    CmPitch:	-3.9068981e-06	-5.8695181e-11	-3.9068394e-06	0
    CmRoll:	-0.00012060245	-0.00011487227	-5.7301851e-06	0
    CmYaw:	9.758748	9.6798886	0.07885946	0
    Cs:	3.2527098e-19	3.2510007e-19	1.7091093e-22	0
    Cs(f):	9.758748	9.6798886	0.07885946	0
    Cs(r):	-9.758748	-9.6798886	-0.07885946	0

    writing force and moment coefficient files.

Courant Number mean: 0.0052728398 max: 0.12593936
Time = 0.008

PIMPLE: iteration 1
diagonal:  Solving for rho, Initial residual = 0, Final residual = 0, No Iterations 0
smoothSolver:  Solving for Ux, Initial residual = 0.001897128, Final residual = 3.8252914e-07, No Iterations 2
smoothSolver:  Solving for Uy, Initial residual = 0.093392911, Final residual = 4.0994921e-09, No Iterations 4
smoothSolver:  Solving for e, Initial residual = 0.012997501, Final residual = 4.150304e-06, No Iterations 2
smoothSolver:  Solving for p, Initial residual = 0.082821473, Final residual = 0.0036118328, No Iterations 1
diagonal:  Solving for rho, Initial residual = 0, Final residual = 0, No Iterations 0
time step continuity errors : sum local = 5.846717e-07, global = 1.1631315e-09, cumulative = -8.8543189e-08
smoothSolver:  Solving for p, Initial residual = 0.0035663845, Final residual = 6.4752385e-06, No Iterations 2
diagonal:  Solving for rho, Initial residual = 0, Final residual = 0, No Iterations 0
time step continuity errors : sum local = 1.1907477e-09, global = 1.5371346e-10, cumulative = -8.8389475e-08
DILUPBiCGStab:  Solving for omega, Initial residual = 0.00023879142, Final residual = 1.0602727e-13, No Iterations 1
smoothSolver:  Solving for k, Initial residual = 0.0080719349, Final residual = 9.7315708e-08, No Iterations 1
ExecutionTime = 5.84 s  ClockTime = 6 s

forceCoeffs forces write:
    Coefficient	Total	Pressure	Viscous	Internal
    Cd:	19.10795	18.943231	0.16471913	0
    Cd(f):	9.5537702	9.4714145	0.082355644	0
    Cd(r):	9.5541798	9.4718163	0.082363491	0
    Cl:	0.00040964216	0.00040179574	7.846428e-06	0
    Cl(f):	0.00020083235	0.00020089782	-6.5469333e-08	0
    Cl(r):	0.00020880981	0.00020089791	7.9118973e-06	0
    CmPitch:	-3.9887291e-06	-4.574952e-11	-3.9886833e-06	0
    CmRoll:	-0.00020482108	-0.00020089787	-3.923214e-06	0
    CmYaw:	9.553975	9.4716154	0.082359567	0
    Cs:	3.2413053e-19	3.2395328e-19	1.7724639e-22	0
    Cs(f):	9.553975	9.4716154	0.082359567	0
    Cs(r):	-9.553975	-9.4716154	-0.082359567	0

    writing force and moment coefficient files.

Courant Number mean: 0.0052679185 max: 0.12393315
Time = 0.009

PIMPLE: iteration 1
diagonal:  Solving for rho, Initial residual = 0, Final residual = 0, No Iterations 0
smoothSolver:  Solving for Ux, Initial residual = 0.0017525331, Final residual = 3.2119481e-07, No Iterations 2
smoothSolver:  Solving for Uy, Initial residual = 0.084993915, Final residual = 3.3281989e-09, No Iterations 4
smoothSolver:  Solving for e, Initial residual = 0.011983225, Final residual = 3.729417e-06, No Iterations 2
smoothSolver:  Solving for p, Initial residual = 0.075381911, Final residual = 0.0030254542, No Iterations 1
diagonal:  Solving for rho, Initial residual = 0, Final residual = 0, No Iterations 0
time step continuity errors : sum local = 5.9164065e-07, global = 5.7359561e-09, cumulative = -8.2653519e-08
smoothSolver:  Solving for p, Initial residual = 0.0030669222, Final residual = 5.2230461e-06, No Iterations 2
diagonal:  Solving for rho, Initial residual = 0, Final residual = 0, No Iterations 0
time step continuity errors : sum local = 1.1316729e-09, global = 1.3092724e-10, cumulative = -8.2522592e-08
DILUPBiCGStab:  Solving for omega, Initial residual = 0.00024256506, Final residual = 9.2118935e-14, No Iterations 1
smoothSolver:  Solving for k, Initial residual = 0.0067751411, Final residual = 8.6662783e-08, No Iterations 1
ExecutionTime = 6.18 s  ClockTime = 6 s

forceCoeffs forces write:
    Coefficient	Total	Pressure	Viscous	Internal
    Cd:	19.546179	19.379427	0.16675211	0
    Cd(f):	9.7731451	9.689773	0.083372126	0
    Cd(r):	9.7730337	9.6896537	0.083379988	0
    Cl:	-0.00011141353	-0.00011927526	7.8617262e-06	0
    Cl(f):	-5.9547402e-05	-5.9637666e-05	9.0264203e-08	0
    Cl(r):	-5.186613e-05	-5.9637592e-05	7.771462e-06	0
    CmPitch:	-3.840636e-06	-3.706918e-11	-3.8405989e-06	0
    CmRoll:	5.5706766e-05	5.9637629e-05	-3.9308631e-06	0
    CmYaw:	9.7730894	9.6897134	0.083376057	0
    Cs:	3.2499501e-19	3.2482167e-19	1.7334187e-22	0
    Cs(f):	9.7730894	9.6897134	0.083376057	0
    Cs(r):	-9.7730894	-9.6897134	-0.083376057	0

    writing force and moment coefficient files.

Courant Number mean: 0.0052627879 max: 0.12176921
Time = 0.01

PIMPLE: iteration 1
diagonal:  Solving for rho, Initial residual = 0, Final residual = 0, No Iterations 0
smoothSolver:  Solving for Ux, Initial residual = 0.0016140569, Final residual = 2.9095169e-07, No Iterations 2
smoothSolver:  Solving for Uy, Initial residual = 0.077329948, Final residual = 2.9943263e-09, No Iterations 4
smoothSolver:  Solving for e, Initial residual = 0.011512132, Final residual = 3.3534948e-06, No Iterations 2
smoothSolver:  Solving for p, Initial residual = 0.066309573, Final residual = 0.0024905848, No Iterations 1
diagonal:  Solving for rho, Initial residual = 0, Final residual = 0, No Iterations 0
time step continuity errors : sum local = 5.6926653e-07, global = 3.9438948e-09, cumulative = -7.8578697e-08
smoothSolver:  Solving for p, Initial residual = 0.0025717176, Final residual = 3.9565149e-06, No Iterations 2
diagonal:  Solving for rho, Initial residual = 0, Final residual = 0, No Iterations 0
time step continuity errors : sum local = 9.9032314e-10, global = 1.0236894e-10, cumulative = -7.8476328e-08
DILUPBiCGStab:  Solving for omega, Initial residual = 0.00023948723, Final residual = 8.7974308e-14, No Iterations 1
smoothSolver:  Solving for k, Initial residual = 0.0057793454, Final residual = 7.2183215e-08, No Iterations 1
ExecutionTime = 6.51 s  ClockTime = 6 s

forceCoeffs forces write:
    Coefficient	Total	Pressure	Viscous	Internal
    Cd:	20.328248	20.164297	0.16395071	0
    Cd(f):	10.164113	10.082143	0.08197018	0
    Cd(r):	10.164135	10.082154	0.081980534	0
    Cl:	2.1698783e-05	1.1344859e-05	1.0353923e-05	0
    Cl(f):	7.1979361e-06	5.6723977e-06	1.5255384e-06	0
    Cl(r):	1.4500847e-05	5.6724617e-06	8.8283851e-06	0
    CmPitch:	-3.6514553e-06	-3.1998291e-11	-3.6514233e-06	0
    CmRoll:	-1.0849391e-05	-5.6724297e-06	-5.1769617e-06	0
    CmYaw:	10.164124	10.082149	0.081975357	0
    Cs:	3.266381e-19	3.2646796e-19	1.7014222e-22	0
    Cs(f):	10.164124	10.082149	0.081975357	0
    Cs(r):	-10.164124	-10.082149	-0.081975357	0

    writing force and moment coefficient files.

Courant Number mean: 0.00525793 max: 0.11946433
Time = 0.011

PIMPLE: iteration 1
diagonal:  Solving for rho, Initial residual = 0, Final residual = 0, No Iterations 0
smoothSolver:  Solving for Ux, Initial residual = 0.0015281805, Final residual = 2.7010287e-07, No Iterations 2
smoothSolver:  Solving for Uy, Initial residual = 0.071899976, Final residual = 2.6671402e-09, No Iterations 4
smoothSolver:  Solving for e, Initial residual = 0.011035464, Final residual = 2.8735981e-06, No Iterations 2
smoothSolver:  Solving for p, Initial residual = 0.059488821, Final residual = 0.002161744, No Iterations 1
diagonal:  Solving for rho, Initial residual = 0, Final residual = 0, No Iterations 0
time step continuity errors : sum local = 5.6612044e-07, global = 5.7374254e-09, cumulative = -7.2738903e-08
smoothSolver:  Solving for p, Initial residual = 0.0022560689, Final residual = 2.9590669e-06, No Iterations 2
diagonal:  Solving for rho, Initial residual = 0, Final residual = 0, No Iterations 0
time step continuity errors : sum local = 8.4103342e-10, global = 9.8040616e-11, cumulative = -7.2640862e-08
DILUPBiCGStab:  Solving for omega, Initial residual = 0.00023727136, Final residual = 8.9359155e-14, No Iterations 1
smoothSolver:  Solving for k, Initial residual = 0.0050051944, Final residual = 6.2142311e-08, No Iterations 1
ExecutionTime = 6.85 s  ClockTime = 7 s

forceCoeffs forces write:
    Coefficient	Total	Pressure	Viscous	Internal
    Cd:	21.097755	20.939292	0.15846234	0
    Cd(f):	10.54873	10.469505	0.079224655	0
    Cd(r):	10.549025	10.469787	0.079237688	0
    Cl:	0.0002948454	0.00028181246	1.3032935e-05	0
    Cl(f):	0.00014376299	0.0001409062	2.8567816e-06	0
    Cl(r):	0.00015108241	0.00014090626	1.0176153e-05	0
    CmPitch:	-3.6597126e-06	-2.6716857e-11	-3.6596859e-06	0
    CmRoll:	-0.0001474227	-0.00014090623	-6.5164675e-06	0
    CmYaw:	10.548877	10.469646	0.079231171	0
    Cs:	3.2833229e-19	3.281629e-19	1.6938765e-22	0
    Cs(f):	10.548877	10.469646	0.079231171	0
    Cs(r):	-10.548877	-10.469646	-0.079231171	0

    writing force and moment coefficient files.

Courant Number mean: 0.0052532072 max: 0.11705644
Time = 0.012

PIMPLE: iteration 1
diagonal:  Solving for rho, Initial residual = 0, Final residual = 0, No Iterations 0
smoothSolver:  Solving for Ux, Initial residual = 0.0014558904, Final residual = 2.4823617e-07, No Iterations 2
smoothSolver:  Solving for Uy, Initial residual = 0.068157191, Final residual = 9.9535438e-06, No Iterations 2
smoothSolver:  Solving for e, Initial residual = 0.010664082, Final residual = 2.6234442e-06, No Iterations 2
smoothSolver:  Solving for p, Initial residual = 0.053578706, Final residual = 0.0018918056, No Iterations 1
diagonal:  Solving for rho, Initial residual = 0, Final residual = 0, No Iterations 0
time step continuity errors : sum local = 5.5982311e-07, global = 5.7758735e-09, cumulative = -6.6864989e-08
smoothSolver:  Solving for p, Initial residual = 0.0019847238, Final residual = 2.5119018e-06, No Iterations 2
diagonal:  Solving for rho, Initial residual = 0, Final residual = 0, No Iterations 0
time step continuity errors : sum local = 8.00937e-10, global = 9.2277395e-11, cumulative = -6.6772711e-08
DILUPBiCGStab:  Solving for omega, Initial residual = 0.00022821894, Final residual = 8.08581e-14, No Iterations 1
smoothSolver:  Solving for k, Initial residual = 0.0043941332, Final residual = 5.0677409e-08, No Iterations 1
ExecutionTime = 7.18 s  ClockTime = 7 s

forceCoeffs forces write:
    Coefficient	Total	Pressure	Viscous	Internal
    Cd:	21.605375	21.452844	0.15253108	0
    Cd(f):	10.80236	10.726101	0.076258941	0
    Cd(r):	10.803015	10.726743	0.076272144	0
    Cl:	0.00065580804	0.00064260523	1.3202807e-05	0
    Cl(f):	0.00032433208	0.00032130259	3.0294861e-06	0
    Cl(r):	0.00033147596	0.00032130264	1.0173321e-05	0
    CmPitch:	-3.5719437e-06	-2.6452301e-11	-3.5719173e-06	0
    CmRoll:	-0.00032790402	-0.00032130262	-6.6014034e-06	0
    CmYaw:	10.802688	10.726422	0.076265542	0
    Cs:	3.2956183e-19	3.2938709e-19	1.7473924e-22	0
    Cs(f):	10.802688	10.726422	0.076265542	0
    Cs(r):	-10.802688	-10.726422	-0.076265542	0

    writing force and moment coefficient files.

Courant Number mean: 0.0052478888 max: 0.11547202
Time = 0.013

PIMPLE: iteration 1
diagonal:  Solving for rho, Initial residual = 0, Final residual = 0, No Iterations 0
smoothSolver:  Solving for Ux, Initial residual = 0.0014090357, Final residual = 2.2082418e-07, No Iterations 2
smoothSolver:  Solving for Uy, Initial residual = 0.065116549, Final residual = 8.8114339e-06, No Iterations 2
smoothSolver:  Solving for e, Initial residual = 0.0099729557, Final residual = 2.41557e-06, No Iterations 2
smoothSolver:  Solving for p, Initial residual = 0.048697884, Final residual = 0.0016541582, No Iterations 1
diagonal:  Solving for rho, Initial residual = 0, Final residual = 0, No Iterations 0
time step continuity errors : sum local = 5.466906e-07, global = 5.2637409e-09, cumulative = -6.150897e-08
smoothSolver:  Solving for p, Initial residual = 0.0017619349, Final residual = 2.0541219e-06, No Iterations 2
diagonal:  Solving for rho, Initial residual = 0, Final residual = 0, No Iterations 0
time step continuity errors : sum local = 7.2689162e-10, global = 8.1143781e-11, cumulative = -6.1427827e-08
DILUPBiCGStab:  Solving for omega, Initial residual = 0.00022208502, Final residual = 7.3704298e-14, No Iterations 1
smoothSolver:  Solving for k, Initial residual = 0.0039088817, Final residual = 4.4125948e-08, No Iterations 1
ExecutionTime = 7.51 s  ClockTime = 7 s

forceCoeffs forces write:
    Coefficient	Total	Pressure	Viscous	Internal
    Cd:	21.722176	21.574522	0.14765396	0
    Cd(f):	10.860601	10.78678	0.073821583	0
    Cd(r):	10.861574	10.787742	0.073832376	0
    Cl:	0.00097272655	0.00096193321	1.0793341e-05	0
    Cl(f):	0.00048282528	0.00048096657	1.858713e-06	0
    Cl(r):	0.00048990126	0.00048096663	8.9346282e-06	0
    CmPitch:	-3.5379889e-06	-3.1322609e-11	-3.5379576e-06	0
    CmRoll:	-0.00048636327	-0.0004809666	-5.3966706e-06	0
    CmYaw:	10.861088	10.787261	0.07382698	0
    Cs:	3.2994385e-19	3.2976367e-19	1.8018032e-22	0
    Cs(f):	10.861088	10.787261	0.07382698	0
    Cs(r):	-10.861088	-10.787261	-0.07382698	0

    writing force and moment coefficient files.

Courant Number mean: 0.0052426759 max: 0.11359094
Time = 0.014

PIMPLE: iteration 1
diagonal:  Solving for rho, Initial residual = 0, Final residual = 0, No Iterations 0
smoothSolver:  Solving for Ux, Initial residual = 0.0013503835, Final residual = 1.9687666e-07, No Iterations 2
smoothSolver:  Solving for Uy, Initial residual = 0.061469769, Final residual = 7.9992911e-06, No Iterations 2
smoothSolver:  Solving for e, Initial residual = 0.0094794373, Final residual = 2.2185992e-06, No Iterations 2
smoothSolver:  Solving for p, Initial residual = 0.046504388, Final residual = 0.0014737113, No Iterations 1
diagonal:  Solving for rho, Initial residual = 0, Final residual = 0, No Iterations 0
time step continuity errors : sum local = 5.3847184e-07, global = 4.3475621e-09, cumulative = -5.7080265e-08
smoothSolver:  Solving for p, Initial residual = 0.001594951, Final residual = 1.6893044e-06, No Iterations 2
diagonal:  Solving for rho, Initial residual = 0, Final residual = 0, No Iterations 0
time step continuity errors : sum local = 6.5776502e-10, global = 6.9076774e-11, cumulative = -5.7011188e-08
DILUPBiCGStab:  Solving for omega, Initial residual = 0.00022119161, Final residual = 7.0890793e-14, No Iterations 1
smoothSolver:  Solving for k, Initial residual = 0.0035179557, Final residual = 4.0148818e-08, No Iterations 1
ExecutionTime = 7.84 s  ClockTime = 8 s

forceCoeffs forces write:
    Coefficient	Total	Pressure	Viscous	Internal
    Cd:	21.46577	21.321203	0.14456645	0
    Cd(f):	10.732369	10.660089	0.072279665	0
    Cd(r):	10.733401	10.661114	0.072286789	0
    Cl:	0.0010324352	0.0010253114	7.1238309e-06	0
    Cl(f):	0.00051272699	0.00051265565	7.1347295e-08	0
    Cl(r):	0.0005197082	0.00051265572	7.0524836e-06	0
    CmPitch:	-3.4906056e-06	-3.741087e-11	-3.4905682e-06	0
    CmRoll:	-0.0005162176	-0.00051265568	-3.5619154e-06	0
    CmYaw:	10.732885	10.660602	0.072283227	0
    Cs:	3.2947903e-19	3.2929298e-19	1.8604413e-22	0
    Cs(f):	10.732885	10.660602	0.072283227	0
    Cs(r):	-10.732885	-10.660602	-0.072283227	0

    writing force and moment coefficient files.

Courant Number mean: 0.0052383042 max: 0.11146959
Time = 0.015

PIMPLE: iteration 1
diagonal:  Solving for rho, Initial residual = 0, Final residual = 0, No Iterations 0
smoothSolver:  Solving for Ux, Initial residual = 0.0012962091, Final residual = 1.858708e-07, No Iterations 2
smoothSolver:  Solving for Uy, Initial residual = 0.058612322, Final residual = 7.4371364e-06, No Iterations 2
smoothSolver:  Solving for e, Initial residual = 0.0095216325, Final residual = 1.9550207e-06, No Iterations 2
smoothSolver:  Solving for p, Initial residual = 0.042886115, Final residual = 0.0012909947, No Iterations 1
diagonal:  Solving for rho, Initial residual = 0, Final residual = 0, No Iterations 0
time step continuity errors : sum local = 5.1731374e-07, global = 2.7923116e-09, cumulative = -5.4218876e-08
smoothSolver:  Solving for p, Initial residual = 0.001407121, Final residual = 1.3770534e-06, No Iterations 2
diagonal:  Solving for rho, Initial residual = 0, Final residual = 0, No Iterations 0
time step continuity errors : sum local = 5.8599723e-10, global = 5.1519954e-11, cumulative = -5.4167356e-08
DILUPBiCGStab:  Solving for omega, Initial residual = 0.00022153054, Final residual = 6.8858723e-14, No Iterations 1
smoothSolver:  Solving for k, Initial residual = 0.0031949153, Final residual = 3.6121346e-08, No Iterations 1
ExecutionTime = 8.17 s  ClockTime = 8 s

forceCoeffs forces write:
    Coefficient	Total	Pressure	Viscous	Internal
    Cd:	21.007088	20.863701	0.14338698	0
    Cd(f):	10.50318	10.431488	0.071691278	0
    Cd(r):	10.503908	10.432212	0.071695698	0
    Cl:	0.00072833101	0.00072391064	4.42037e-06	0
    Cl(f):	0.00036080025	0.00036195528	-1.1550284e-06	0
    Cl(r):	0.00036753076	0.00036195536	5.5753984e-06	0
    CmPitch:	-3.3652554e-06	-4.1984575e-11	-3.3652134e-06	0
    CmRoll:	-0.00036416551	-0.00036195532	-2.210185e-06	0
    CmYaw:	10.503544	10.43185	0.071693488	0
    Cs:	3.2853112e-19	3.2834278e-19	1.883395e-22	0
    Cs(f):	10.503544	10.43185	0.071693488	0
    Cs(r):	-10.503544	-10.43185	-0.071693488	0

    writing force and moment coefficient files.

Courant Number mean: 0.0052336514 max: 0.10984355
Time = 0.016

PIMPLE: iteration 1
diagonal:  Solving for rho, Initial residual = 0, Final residual = 0, No Iterations 0
smoothSolver:  Solving for Ux, Initial residual = 0.001226615, Final residual = 1.7345031e-07, No Iterations 2
smoothSolver:  Solving for Uy, Initial residual = 0.055446111, Final residual = 6.8544088e-06, No Iterations 2
smoothSolver:  Solving for e, Initial residual = 0.0091462015, Final residual = 1.8394636e-06, No Iterations 2
smoothSolver:  Solving for p, Initial residual = 0.040280108, Final residual = 0.0011744551, No Iterations 1
diagonal:  Solving for rho, Initial residual = 0, Final residual = 0, No Iterations 0
time step continuity errors : sum local = 5.1277747e-07, global = 3.7265281e-09, cumulative = -5.0440828e-08
smoothSolver:  Solving for p, Initial residual = 0.001280179, Final residual = 1.1411081e-06, No Iterations 2
diagonal:  Solving for rho, Initial residual = 0, Final residual = 0, No Iterations 0
time step continuity errors : sum local = 5.2721515e-10, global = 4.2677409e-11, cumulative = -5.0398151e-08
DILUPBiCGStab:  Solving for omega, Initial residual = 0.00021939054, Final residual = 6.4628894e-14, No Iterations 1
smoothSolver:  Solving for k, Initial residual = 0.0029225994, Final residual = 3.2278944e-08, No Iterations 1
ExecutionTime = 8.5 s  ClockTime = 8 s

forceCoeffs forces write:
    Coefficient	Total	Pressure	Viscous	Internal
    Cd:	20.589711	20.446073	0.14363811	0
    Cd(f):	10.294733	10.222916	0.071817003	0
    Cd(r):	10.294978	10.223157	0.071821103	0
    Cl:	0.00024538984	0.00024129005	4.0997984e-06	0
    Cl(f):	0.00011953836	0.00012064498	-1.1066241e-06	0
    Cl(r):	0.00012585149	0.00012064507	5.2064225e-06	0
    CmPitch:	-3.1565669e-06	-4.3615881e-11	-3.1565233e-06	0
    CmRoll:	-0.00012269492	-0.00012064502	-2.0498992e-06	0
    CmYaw:	10.294856	10.223037	0.071819053	0
    Cs:	3.2764437e-19	3.2745788e-19	1.8648703e-22	0
    Cs(f):	10.294856	10.223037	0.071819053	0
    Cs(r):	-10.294856	-10.223037	-0.071819053	0

    writing force and moment coefficient files.

Courant Number mean: 0.0052287115 max: 0.10824107
Time = 0.017

PIMPLE: iteration 1
diagonal:  Solving for rho, Initial residual = 0, Final residual = 0, No Iterations 0
smoothSolver:  Solving for Ux, Initial residual = 0.0011892936, Final residual = 1.5169977e-07, No Iterations 2
smoothSolver:  Solving for Uy, Initial residual = 0.053158984, Final residual = 6.0465142e-06, No Iterations 2
smoothSolver:  Solving for e, Initial residual = 0.0088057192, Final residual = 1.7400336e-06, No Iterations 2
smoothSolver:  Solving for p, Initial residual = 0.038458389, Final residual = 0.0010749948, No Iterations 1
diagonal:  Solving for rho, Initial residual = 0, Final residual = 0, No Iterations 0
time step continuity errors : sum local = 5.0852142e-07, global = 5.7750647e-09, cumulative = -4.4623086e-08
smoothSolver:  Solving for p, Initial residual = 0.0011946789, Final residual = 9.7745549e-07, No Iterations 2
diagonal:  Solving for rho, Initial residual = 0, Final residual = 0, No Iterations 0
time step continuity errors : sum local = 4.8757372e-10, global = 3.7333996e-11, cumulative = -4.4585752e-08
DILUPBiCGStab:  Solving for omega, Initial residual = 0.00021757347, Final residual = 6.0517263e-14, No Iterations 1
smoothSolver:  Solving for k, Initial residual = 0.0026919161, Final residual = 2.9927706e-08, No Iterations 1
ExecutionTime = 8.83 s  ClockTime = 9 s

forceCoeffs forces write:
    Coefficient	Total	Pressure	Viscous	Internal
    Cd:	20.365152	20.220959	0.14419247	0
    Cd(f):	10.182569	10.110476	0.072093455	0
    Cd(r):	10.182582	10.110483	0.072099013	0
    Cl:	1.3338423e-05	7.7812874e-06	5.5571358e-06	0
    Cl(f):	3.7232851e-06	3.890601e-06	-1.6731587e-07	0
    Cl(r):	9.6151381e-06	3.8906864e-06	5.7244517e-06	0
    CmPitch:	-2.9459265e-06	-4.2693747e-11	-2.9458838e-06	0
    CmRoll:	-6.6692116e-06	-3.8906437e-06	-2.7785679e-06	0
    CmYaw:	10.182576	10.11048	0.072096234	0
    Cs:	3.2708264e-19	3.2689702e-19	1.8561727e-22	0
    Cs(f):	10.182576	10.11048	0.072096234	0
    Cs(r):	-10.182576	-10.11048	-0.072096234	0

    writing force and moment coefficient files.

Courant Number mean: 0.0052241734 max: 0.10630612
Time = 0.018

PIMPLE: iteration 1
diagonal:  Solving for rho, Initial residual = 0, Final residual = 0, No Iterations 0
smoothSolver:  Solving for Ux, Initial residual = 0.0011719667, Final residual = 1.4525488e-07, No Iterations 2
smoothSolver:  Solving for Uy, Initial residual = 0.051657916, Final residual = 5.7587101e-06, No Iterations 2
smoothSolver:  Solving for e, Initial residual = 0.0087369297, Final residual = 1.6480986e-06, No Iterations 2
smoothSolver:  Solving for p, Initial residual = 0.035784985, Final residual = 0.00096130585, No Iterations 1
diagonal:  Solving for rho, Initial residual = 0, Final residual = 0, No Iterations 0
time step continuity errors : sum local = 4.9021045e-07, global = 8.6301352e-09, cumulative = -3.5955617e-08
smoothSolver:  Solving for p, Initial residual = 0.0010812677, Final residual = 8.4185176e-07, No Iterations 2
diagonal:  Solving for rho, Initial residual = 0, Final residual = 0, No Iterations 0
time step continuity errors : sum local = 4.5099481e-10, global = 3.7893419e-11, cumulative = -3.5917723e-08
DILUPBiCGStab:  Solving for omega, Initial residual = 0.00021808776, Final residual = 5.6225052e-14, No Iterations 1
smoothSolver:  Solving for k, Initial residual = 0.0024922515, Final residual = 2.7826538e-08, No Iterations 1
ExecutionTime = 9.16 s  ClockTime = 9 s

forceCoeffs forces write:
    Coefficient	Total	Pressure	Viscous	Internal
    Cd:	20.334342	20.190208	0.14413398	0
    Cd(f):	10.167114	10.09505	0.07206355	0
    Cd(r):	10.167228	10.095158	0.072070435	0
    Cl:	0.00011456404	0.00010767918	6.8848535e-06	0
    Cl(f):	5.4443189e-05	5.3839552e-05	6.0363712e-07	0
    Cl(r):	6.0120849e-05	5.3839633e-05	6.2812163e-06	0
    CmPitch:	-2.83883e-06	-4.0400843e-11	-2.8387896e-06	0
    CmRoll:	-5.7282019e-05	-5.3839592e-05	-3.4424267e-06	0
    CmYaw:	10.167171	10.095104	0.072066992	0
    Cs:	3.268771e-19	3.2669141e-19	1.8568232e-22	0
    Cs(f):	10.167171	10.095104	0.072066992	0
    Cs(r):	-10.167171	-10.095104	-0.072066992	0

    writing force and moment coefficient files.

Courant Number mean: 0.0052196806 max: 0.10487569
Time = 0.019

PIMPLE: iteration 1
diagonal:  Solving for rho, Initial residual = 0, Final residual = 0, No Iterations 0
smoothSolver:  Solving for Ux, Initial residual = 0.0011469635, Final residual = 1.3762271e-07, No Iterations 2
smoothSolver:  Solving for Uy, Initial residual = 0.049687872, Final residual = 5.3561626e-06, No Iterations 2
smoothSolver:  Solving for e, Initial residual = 0.008455415, Final residual = 1.467898e-06, No Iterations 2
smoothSolver:  Solving for p, Initial residual = 0.033833162, Final residual = 0.00086850332, No Iterations 1
diagonal:  Solving for rho, Initial residual = 0, Final residual = 0, No Iterations 0
time step continuity errors : sum local = 4.7509633e-07, global = 9.3802783e-09, cumulative = -2.6537445e-08
smoothSolver:  Solving for p, Initial residual = 0.00097981925, Final residual = 7.1141485e-07, No Iterations 2
diagonal:  Solving for rho, Initial residual = 0, Final residual = 0, No Iterations 0
time step continuity errors : sum local = 4.0748444e-10, global = 3.4362674e-11, cumulative = -2.6503082e-08
DILUPBiCGStab:  Solving for omega, Initial residual = 0.00021680626, Final residual = 5.0711004e-14, No Iterations 1
smoothSolver:  Solving for k, Initial residual = 0.0023167976, Final residual = 2.5433963e-08, No Iterations 1
ExecutionTime = 9.5 s  ClockTime = 9 s

forceCoeffs forces write:
    Coefficient	Total	Pressure	Viscous	Internal
    Cd:	20.415878	20.272699	0.14317897	0
    Cd(f):	10.207787	10.136201	0.071585942	0
    Cd(r):	10.208091	10.136498	0.071593031	0
    Cl:	0.00030375594	0.00029666641	7.0895304e-06	0
    Cl(f):	0.00014908356	0.00014833317	7.5039624e-07	0
    Cl(r):	0.00015467238	0.00014833324	6.3391341e-06	0
    CmPitch:	-2.794407e-06	-3.8014541e-11	-2.794369e-06	0
    CmRoll:	-0.00015187797	-0.0001483332	-3.5447652e-06	0
    CmYaw:	10.207939	10.136349	0.071589487	0
    Cs:	3.2692828e-19	3.2674275e-19	1.8552581e-22	0
    Cs(f):	10.207939	10.136349	0.071589487	0
    Cs(r):	-10.207939	-10.136349	-0.071589487	0

    writing force and moment coefficient files.

Courant Number mean: 0.0052150028 max: 0.10338215
Time = 0.02

PIMPLE: iteration 1
diagonal:  Solving for rho, Initial residual = 0, Final residual = 0, No Iterations 0
smoothSolver:  Solving for Ux, Initial residual = 0.0011181814, Final residual = 1.2860502e-07, No Iterations 2
smoothSolver:  Solving for Uy, Initial residual = 0.047590603, Final residual = 4.8396869e-06, No Iterations 2
smoothSolver:  Solving for e, Initial residual = 0.0081393839, Final residual = 1.3887425e-06, No Iterations 2
smoothSolver:  Solving for p, Initial residual = 0.032680245, Final residual = 0.00079298243, No Iterations 1
diagonal:  Solving for rho, Initial residual = 0, Final residual = 0, No Iterations 0
time step continuity errors : sum local = 4.6315529e-07, global = 8.5481553e-09, cumulative = -1.7954927e-08
smoothSolver:  Solving for p, Initial residual = 0.00091021256, Final residual = 5.8710215e-07, No Iterations 2
diagonal:  Solving for rho, Initial residual = 0, Final residual = 0, No Iterations 0
time step continuity errors : sum local = 3.5810937e-10, global = 2.7940472e-11, cumulative = -1.7926987e-08
DILUPBiCGStab:  Solving for omega, Initial residual = 0.00021472852, Final residual = 4.5263542e-14, No Iterations 1
smoothSolver:  Solving for k, Initial residual = 0.0021638788, Final residual = 2.3201174e-08, No Iterations 1
ExecutionTime = 9.83 s  ClockTime = 10 s

forceCoeffs forces write:
    Coefficient	Total	Pressure	Viscous	Internal
    Cd:	20.530756	20.389137	0.14161969	0
    Cd(f):	10.265161	10.194354	0.070806599	0
    Cd(r):	10.265596	10.194783	0.07081309	0
    Cl:	0.00043486422	0.00042837355	6.4906698e-06	0
    Cl(f):	0.00021467494	0.00021418674	4.8819825e-07	0
    Cl(r):	0.00022018928	0.00021418681	6.0024715e-06	0
    CmPitch:	-2.7571723e-06	-3.5674043e-11	-2.7571366e-06	0
    CmRoll:	-0.00021743211	-0.00021418677	-3.2453349e-06	0
    CmYaw:	10.265378	10.194568	0.070809845	0
    Cs:	3.2708434e-19	3.2689834e-19	1.860023e-22	0
    Cs(f):	10.265378	10.194568	0.070809845	0
    Cs(r):	-10.265378	-10.194568	-0.070809845	0

    writing force and moment coefficient files.

Courant Number mean: 0.0052106505 max: 0.10150801
Time = 0.021

PIMPLE: iteration 1
diagonal:  Solving for rho, Initial residual = 0, Final residual = 0, No Iterations 0
smoothSolver:  Solving for Ux, Initial residual = 0.0010973641, Final residual = 1.1881358e-07, No Iterations 2
smoothSolver:  Solving for Uy, Initial residual = 0.046243012, Final residual = 4.5929078e-06, No Iterations 2
smoothSolver:  Solving for e, Initial residual = 0.0081333999, Final residual = 1.3396789e-06, No Iterations 2
smoothSolver:  Solving for p, Initial residual = 0.031100514, Final residual = 0.00072964857, No Iterations 1
diagonal:  Solving for rho, Initial residual = 0, Final residual = 0, No Iterations 0
time step continuity errors : sum local = 4.5317833e-07, global = 7.7029623e-09, cumulative = -1.0224024e-08
smoothSolver:  Solving for p, Initial residual = 0.00084510589, Final residual = 5.0401517e-07, No Iterations 2
diagonal:  Solving for rho, Initial residual = 0, Final residual = 0, No Iterations 0
time step continuity errors : sum local = 3.2625777e-10, global = 2.2893404e-11, cumulative = -1.0201131e-08
DILUPBiCGStab:  Solving for omega, Initial residual = 0.00021181201, Final residual = 4.1095018e-14, No Iterations 1
smoothSolver:  Solving for k, Initial residual = 0.002029255, Final residual = 2.1011969e-08, No Iterations 1
ExecutionTime = 10.17 s  ClockTime = 10 s

forceCoeffs forces write:
    Coefficient	Total	Pressure	Viscous	Internal
    Cd:	20.635335	20.495401	0.13993378	0
    Cd(f):	10.317409	10.247445	0.069964113	0
    Cd(r):	10.317926	10.247957	0.069969672	0
    Cl:	0.00051753495	0.00051197651	5.5584446e-06	0
    Cl(f):	0.00025605498	0.00025598822	6.6764073e-08	0
    Cl(r):	0.00026147997	0.00025598829	5.4916805e-06	0
    CmPitch:	-2.7124929e-06	-3.4728652e-11	-2.7124582e-06	0
    CmRoll:	-0.00025876747	-0.00025598825	-2.7792223e-06	0
    CmYaw:	10.317667	10.247701	0.069966892	0
    Cs:	3.2724383e-19	3.2705711e-19	1.8671931e-22	0
    Cs(f):	10.317667	10.247701	0.069966892	0
    Cs(r):	-10.317667	-10.247701	-0.069966892	0

    writing force and moment coefficient files.

Courant Number mean: 0.0052064636 max: 0.10042309
Time = 0.022

PIMPLE: iteration 1
diagonal:  Solving for rho, Initial residual = 0, Final residual = 0, No Iterations 0
smoothSolver:  Solving for Ux, Initial residual = 0.0010661023, Final residual = 1.1410764e-07, No Iterations 2
smoothSolver:  Solving for Uy, Initial residual = 0.044817601, Final residual = 4.3631419e-06, No Iterations 2
smoothSolver:  Solving for e, Initial residual = 0.0080056677, Final residual = 1.2025719e-06, No Iterations 2
smoothSolver:  Solving for p, Initial residual = 0.029867954, Final residual = 0.0006741278, No Iterations 1
diagonal:  Solving for rho, Initial residual = 0, Final residual = 0, No Iterations 0
time step continuity errors : sum local = 4.4378323e-07, global = 6.8992754e-09, cumulative = -3.3018556e-09
smoothSolver:  Solving for p, Initial residual = 0.00078548248, Final residual = 4.3959139e-07, No Iterations 2
diagonal:  Solving for rho, Initial residual = 0, Final residual = 0, No Iterations 0
time step continuity errors : sum local = 3.0109034e-10, global = 1.8274295e-11, cumulative = -3.2835813e-09
DILUPBiCGStab:  Solving for omega, Initial residual = 0.00020851747, Final residual = 3.6372342e-14, No Iterations 1
smoothSolver:  Solving for k, Initial residual = 0.0019094366, Final residual = 1.9225599e-08, No Iterations 1
ExecutionTime = 10.5 s  ClockTime = 10 s

forceCoeffs forces write:
    Coefficient	Total	Pressure	Viscous	Internal
    Cd:	20.703507	20.565058	0.13844887	0
    Cd(f):	10.351488	10.282266	0.069222139	0
    Cd(r):	10.352019	10.282792	0.069226731	0
    Cl:	0.00053062591	0.00052603454	4.5913697e-06	0
    Cl(f):	0.00026266054	0.00026301723	-3.5669183e-07	0
    Cl(r):	0.00026796537	0.0002630173	4.9480615e-06	0
    CmPitch:	-2.652412e-06	-3.5310873e-11	-2.6523767e-06	0
    CmRoll:	-0.00026531295	-0.00026301727	-2.2956849e-06	0
    CmYaw:	10.351753	10.282529	0.069224435	0
    Cs:	3.2737711e-19	3.2718859e-19	1.8851577e-22	0
    Cs(f):	10.351753	10.282529	0.069224435	0
    Cs(r):	-10.351753	-10.282529	-0.069224435	0

    writing force and moment coefficient files.

Courant Number mean: 0.0052020869 max: 0.098877663
Time = 0.023

PIMPLE: iteration 1
diagonal:  Solving for rho, Initial residual = 0, Final residual = 0, No Iterations 0
smoothSolver:  Solving for Ux, Initial residual = 0.0010479109, Final residual = 1.0170408e-07, No Iterations 2
smoothSolver:  Solving for Uy, Initial residual = 0.043310923, Final residual = 3.8920113e-06, No Iterations 2
smoothSolver:  Solving for e, Initial residual = 0.007799847, Final residual = 1.147893e-06, No Iterations 2
smoothSolver:  Solving for p, Initial residual = 0.028739125, Final residual = 0.0006136821, No Iterations 1
diagonal:  Solving for rho, Initial residual = 0, Final residual = 0, No Iterations 0
time step continuity errors : sum local = 4.2698209e-07, global = 5.2735702e-09, cumulative = 1.989989e-09
smoothSolver:  Solving for p, Initial residual = 0.00072556893, Final residual = 3.7210911e-07, No Iterations 2
diagonal:  Solving for rho, Initial residual = 0, Final residual = 0, No Iterations 0
time step continuity errors : sum local = 2.6899035e-10, global = 1.1567824e-11, cumulative = 2.0015568e-09
DILUPBiCGStab:  Solving for omega, Initial residual = 0.00020563247, Final residual = 3.3041009e-14, No Iterations 1
smoothSolver:  Solving for k, Initial residual = 0.0018039674, Final residual = 1.7634286e-08, No Iterations 1
ExecutionTime = 10.83 s  ClockTime = 11 s

forceCoeffs forces write:
    Coefficient	Total	Pressure	Viscous	Internal
    Cd:	20.725407	20.588186	0.13722098	0
    Cd(f):	10.362453	10.293844	0.068608715	0
    Cd(r):	10.362955	10.294342	0.068612267	0
    Cl:	0.00050182783	0.00049827533	3.5524958e-06	0
    Cl(f):	0.00024833548	0.00024913763	-8.0214464e-07	0
    Cl(r):	0.00025349234	0.0002491377	4.3546404e-06	0
    CmPitch:	-2.5784298e-06	-3.7284909e-11	-2.5783925e-06	0
    CmRoll:	-0.00025091391	-0.00024913767	-1.7762479e-06	0
    CmYaw:	10.362704	10.294093	0.068610491	0
    Cs:	3.2745258e-19	3.2726181e-19	1.9077263e-22	0
    Cs(f):	10.362704	10.294093	0.068610491	0
    Cs(r):	-10.362704	-10.294093	-0.068610491	0

    writing force and moment coefficient files.

Courant Number mean: 0.0051976966 max: 0.097455734
Time = 0.024

PIMPLE: iteration 1
diagonal:  Solving for rho, Initial residual = 0, Final residual = 0, No Iterations 0
smoothSolver:  Solving for Ux, Initial residual = 0.001037214, Final residual = 9.9332457e-08, No Iterations 2
smoothSolver:  Solving for Uy, Initial residual = 0.042335531, Final residual = 3.7889391e-06, No Iterations 2
smoothSolver:  Solving for e, Initial residual = 0.0077325958, Final residual = 1.1241352e-06, No Iterations 2
smoothSolver:  Solving for p, Initial residual = 0.027700204, Final residual = 0.00056722817, No Iterations 1
diagonal:  Solving for rho, Initial residual = 0, Final residual = 0, No Iterations 0
time step continuity errors : sum local = 4.160655e-07, global = 4.7686348e-09, cumulative = 6.7701916e-09
smoothSolver:  Solving for p, Initial residual = 0.00068037972, Final residual = 3.176999e-07, No Iterations 2
diagonal:  Solving for rho, Initial residual = 0, Final residual = 0, No Iterations 0
time step continuity errors : sum local = 2.4173657e-10, global = 8.1352128e-12, cumulative = 6.7783268e-09
DILUPBiCGStab:  Solving for omega, Initial residual = 0.00020351662, Final residual = 3.0443622e-14, No Iterations 1
smoothSolver:  Solving for k, Initial residual = 0.0017102466, Final residual = 1.6433197e-08, No Iterations 1
ExecutionTime = 11.16 s  ClockTime = 11 s

forceCoeffs forces write:
    Coefficient	Total	Pressure	Viscous	Internal
    Cd:	20.690884	20.554682	0.13620201	0
    Cd(f):	10.345254	10.277154	0.068099625	0
    Cd(r):	10.345631	10.277528	0.068102383	0
    Cl:	0.00037711394	0.00037435614	2.7577933e-06	0
    Cl(f):	0.00018605697	0.00018717803	-1.1210619e-06	0
    Cl(r):	0.00019105697	0.00018717811	3.8788553e-06	0
    CmPitch:	-2.4999986e-06	-4.0019452e-11	-2.4999586e-06	0
    CmRoll:	-0.00018855697	-0.00018717807	-1.3788967e-06	0
    CmYaw:	10.345442	10.277341	0.068101004	0
    Cs:	3.2743593e-19	3.2724372e-19	1.9220905e-22	0
    Cs(f):	10.345442	10.277341	0.068101004	0
    Cs(r):	-10.345442	-10.277341	-0.068101004	0

    writing force and moment coefficient files.

Courant Number mean: 0.0051935808 max: 0.096278752
Time = 0.025

PIMPLE: iteration 1
diagonal:  Solving for rho, Initial residual = 0, Final residual = 0, No Iterations 0
smoothSolver:  Solving for Ux, Initial residual = 0.0010121666, Final residual = 9.6659938e-08, No Iterations 2
smoothSolver:  Solving for Uy, Initial residual = 0.041130998, Final residual = 3.6410884e-06, No Iterations 2
smoothSolver:  Solving for e, Initial residual = 0.0076108128, Final residual = 1.0098468e-06, No Iterations 2
smoothSolver:  Solving for p, Initial residual = 0.026790664, Final residual = 0.00052631878, No Iterations 1
diagonal:  Solving for rho, Initial residual = 0, Final residual = 0, No Iterations 0
time step continuity errors : sum local = 4.060092e-07, global = 5.5112919e-09, cumulative = 1.2289619e-08
smoothSolver:  Solving for p, Initial residual = 0.00062800343, Final residual = 2.7249787e-07, No Iterations 2
diagonal:  Solving for rho, Initial residual = 0, Final residual = 0, No Iterations 0
time step continuity errors : sum local = 2.1768333e-10, global = 8.9025256e-12, cumulative = 1.2298521e-08
DILUPBiCGStab:  Solving for omega, Initial residual = 0.00020247953, Final residual = 2.7726842e-14, No Iterations 1
smoothSolver:  Solving for k, Initial residual = 0.0016263394, Final residual = 1.5328209e-08, No Iterations 1
ExecutionTime = 11.49 s  ClockTime = 11 s

forceCoeffs forces write:
    Coefficient	Total	Pressure	Viscous	Internal
    Cd:	20.606889	20.471503	0.13538633	0
    Cd(f):	10.30334	10.235648	0.067691741	0
    Cd(r):	10.303549	10.235855	0.067694592	0
    Cl:	0.00020892177	0.00020607062	2.8511578e-06	0
    Cl(f):	0.00010206952	0.00010303527	-9.6574973e-07	0
    Cl(r):	0.00010685226	0.00010303535	3.8169075e-06	0
    CmPitch:	-2.3913704e-06	-4.1806974e-11	-2.3913286e-06	0
    CmRoll:	-0.00010446089	-0.00010303531	-1.4255789e-06	0
    CmYaw:	10.303445	10.235752	0.067693166	0
    Cs:	3.2733474e-19	3.2714233e-19	1.9240242e-22	0
    Cs(f):	10.303445	10.235752	0.067693166	0
    Cs(r):	-10.303445	-10.235752	-0.067693166	0

    writing force and moment coefficient files.

Courant Number mean: 0.0051893867 max: 0.094591736
Time = 0.026

PIMPLE: iteration 1
diagonal:  Solving for rho, Initial residual = 0, Final residual = 0, No Iterations 0
smoothSolver:  Solving for Ux, Initial residual = 0.0010010072, Final residual = 8.7847154e-08, No Iterations 2
smoothSolver:  Solving for Uy, Initial residual = 0.039960375, Final residual = 3.2928448e-06, No Iterations 2
smoothSolver:  Solving for e, Initial residual = 0.0074753303, Final residual = 9.8480092e-07, No Iterations 2
smoothSolver:  Solving for p, Initial residual = 0.02564875, Final residual = 0.00047933589, No Iterations 1
diagonal:  Solving for rho, Initial residual = 0, Final residual = 0, No Iterations 0
time step continuity errors : sum local = 3.8796409e-07, global = 5.9071965e-09, cumulative = 1.8205718e-08
smoothSolver:  Solving for p, Initial residual = 0.00058723568, Final residual = 2.3337618e-07, No Iterations 2
diagonal:  Solving for rho, Initial residual = 0, Final residual = 0, No Iterations 0
time step continuity errors : sum local = 1.9530162e-10, global = 9.7965324e-12, cumulative = 1.8215514e-08
DILUPBiCGStab:  Solving for omega, Initial residual = 0.00020172406, Final residual = 2.6318989e-14, No Iterations 1
smoothSolver:  Solving for k, Initial residual = 0.0015516151, Final residual = 1.4397615e-08, No Iterations 1
ExecutionTime = 11.82 s  ClockTime = 12 s

forceCoeffs forces write:
    Coefficient	Total	Pressure	Viscous	Internal
    Cd:	20.511329	20.376577	0.13475199	0
    Cd(f):	10.25561	10.188235	0.06737418	0
    Cd(r):	10.255719	10.188341	0.067377813	0
    Cl:	0.00010960172	0.00010596884	3.6328814e-06	0
    Cl(f):	5.2514141e-05	5.2984379e-05	-4.7023804e-07	0
    Cl(r):	5.7087581e-05	5.2984461e-05	4.1031194e-06	0
    CmPitch:	-2.2867198e-06	-4.1077018e-11	-2.2866787e-06	0
    CmRoll:	-5.4800861e-05	-5.298442e-05	-1.8164407e-06	0
    CmYaw:	10.255664	10.188288	0.067375996	0
    Cs:	3.2722354e-19	3.2703113e-19	1.9240435e-22	0
    Cs(f):	10.255664	10.188288	0.067375996	0
    Cs(r):	-10.255664	-10.188288	-0.067375996	0

    writing force and moment coefficient files.

Courant Number mean: 0.0051851966 max: 0.093731161
Time = 0.027

PIMPLE: iteration 1
diagonal:  Solving for rho, Initial residual = 0, Final residual = 0, No Iterations 0
smoothSolver:  Solving for Ux, Initial residual = 0.00098745727, Final residual = 8.7209976e-08, No Iterations 2
smoothSolver:  Solving for Uy, Initial residual = 0.03916467, Final residual = 3.2345991e-06, No Iterations 2
smoothSolver:  Solving for e, Initial residual = 0.0074322204, Final residual = 9.1372211e-07, No Iterations 2
smoothSolver:  Solving for p, Initial residual = 0.025210829, Final residual = 0.00045694681, No Iterations 1
diagonal:  Solving for rho, Initial residual = 0, Final residual = 0, No Iterations 0
time step continuity errors : sum local = 3.8721481e-07, global = 6.6395281e-09, cumulative = 2.4855042e-08
smoothSolver:  Solving for p, Initial residual = 0.00057106057, Final residual = 9.8450536e-06, No Iterations 1
diagonal:  Solving for rho, Initial residual = 0, Final residual = 0, No Iterations 0
time step continuity errors : sum local = 8.6144675e-09, global = 4.8726778e-10, cumulative = 2.534231e-08
DILUPBiCGStab:  Solving for omega, Initial residual = 0.00020062345, Final residual = 2.4805734e-14, No Iterations 1
smoothSolver:  Solving for k, Initial residual = 0.001483811, Final residual = 1.3631632e-08, No Iterations 1
ExecutionTime = 12.15 s  ClockTime = 12 s

forceCoeffs forces write:
    Coefficient	Total	Pressure	Viscous	Internal
    Cd:	20.445825	20.311669	0.13415547	0
    Cd(f):	10.222819	10.155743	0.067075514	0
    Cd(r):	10.223006	10.155926	0.067079957	0
    Cl:	0.00018728855	0.00018284618	4.4423705e-06	0
    Cl(f):	9.1429557e-05	9.1423051e-05	6.506159e-09	0
    Cl(r):	9.5858993e-05	9.1423128e-05	4.4358644e-06	0
    CmPitch:	-2.2147177e-06	-3.8596169e-11	-2.2146791e-06	0
    CmRoll:	-9.3644275e-05	-9.142309e-05	-2.2211853e-06	0
    CmYaw:	10.222912	10.155835	0.067077736	0
    Cs:	3.2715968e-19	3.2696677e-19	1.9290129e-22	0
    Cs(f):	10.222912	10.155835	0.067077736	0
    Cs(r):	-10.222912	-10.155835	-0.067077736	0

    writing force and moment coefficient files.

Courant Number mean: 0.0051813265 max: 0.092267172
Time = 0.028

PIMPLE: iteration 1
diagonal:  Solving for rho, Initial residual = 0, Final residual = 0, No Iterations 0
smoothSolver:  Solving for Ux, Initial residual = 0.00096524204, Final residual = 8.375491e-08, No Iterations 2
smoothSolver:  Solving for Uy, Initial residual = 0.037860015, Final residual = 3.0811771e-06, No Iterations 2
smoothSolver:  Solving for e, Initial residual = 0.0073772831, Final residual = 8.8627031e-07, No Iterations 2
smoothSolver:  Solving for p, Initial residual = 0.024544999, Final residual = 0.00042701598, No Iterations 1
diagonal:  Solving for rho, Initial residual = 0, Final residual = 0, No Iterations 0
time step continuity errors : sum local = 3.7813428e-07, global = 6.5075849e-09, cumulative = 3.1849895e-08
smoothSolver:  Solving for p, Initial residual = 0.00052281972, Final residual = 8.8970943e-06, No Iterations 1
diagonal:  Solving for rho, Initial residual = 0, Final residual = 0, No Iterations 0
time step continuity errors : sum local = 8.1246626e-09, global = 4.4167957e-10, cumulative = 3.2291575e-08
DILUPBiCGStab:  Solving for omega, Initial residual = 0.00019949295, Final residual = 2.3701865e-14, No Iterations 1
smoothSolver:  Solving for k, Initial residual = 0.0014216729, Final residual = 1.2687084e-08, No Iterations 1
ExecutionTime = 12.48 s  ClockTime = 12 s

forceCoeffs forces write:
    Coefficient	Total	Pressure	Viscous	Internal
    Cd:	20.413795	20.280346	0.13344908	0
    Cd(f):	10.206724	10.140002	0.066722211	0
    Cd(r):	10.207071	10.140344	0.066726865	0
    Cl:	0.0003467908	0.00034213633	4.6544652e-06	0
    Cl(f):	0.00017121076	0.00017106813	1.426279e-07	0
    Cl(r):	0.00017558004	0.0001710682	4.5118373e-06	0
    CmPitch:	-2.1846417e-06	-3.7027508e-11	-2.1846047e-06	0
    CmRoll:	-0.0001733954	-0.00017106817	-2.3272326e-06	0
    CmYaw:	10.206898	10.140173	0.066724538	0
    Cs:	3.2717655e-19	3.2698293e-19	1.9361954e-22	0
    Cs(f):	10.206898	10.140173	0.066724538	0
    Cs(r):	-10.206898	-10.140173	-0.066724538	0

    writing force and moment coefficient files.

Courant Number mean: 0.0051772519 max: 0.09125773
Time = 0.029

PIMPLE: iteration 1
diagonal:  Solving for rho, Initial residual = 0, Final residual = 0, No Iterations 0
smoothSolver:  Solving for Ux, Initial residual = 0.00096225346, Final residual = 7.809418e-08, No Iterations 2
smoothSolver:  Solving for Uy, Initial residual = 0.036970536, Final residual = 2.8563e-06, No Iterations 2
smoothSolver:  Solving for e, Initial residual = 0.007271322, Final residual = 8.5651777e-07, No Iterations 2
smoothSolver:  Solving for p, Initial residual = 0.023423555, Final residual = 0.00038967288, No Iterations 1
diagonal:  Solving for rho, Initial residual = 0, Final residual = 0, No Iterations 0
time step continuity errors : sum local = 3.5992037e-07, global = 6.2654638e-09, cumulative = 3.8557038e-08
smoothSolver:  Solving for p, Initial residual = 0.00049982599, Final residual = 7.9484407e-06, No Iterations 1
diagonal:  Solving for rho, Initial residual = 0, Final residual = 0, No Iterations 0
time step continuity errors : sum local = 7.5605688e-09, global = 3.8997269e-10, cumulative = 3.8947011e-08
DILUPBiCGStab:  Solving for omega, Initial residual = 0.00019829646, Final residual = 2.2884737e-14, No Iterations 1
smoothSolver:  Solving for k, Initial residual = 0.0013651483, Final residual = 1.1868428e-08, No Iterations 1
ExecutionTime = 12.81 s  ClockTime = 13 s

forceCoeffs forces write:
    Coefficient	Total	Pressure	Viscous	Internal
    Cd:	20.395582	20.262981	0.13260145	0
    Cd(f):	10.197543	10.131245	0.066298631	0
    Cd(r):	10.198039	10.131736	0.066302821	0
    Cl:	0.00049567425	0.00049148417	4.1900802e-06	0
    Cl(f):	0.00024567836	0.00024574205	-6.3688826e-08	0
    Cl(r):	0.00024999589	0.00024574212	4.253769e-06	0
    CmPitch:	-2.1587663e-06	-3.7397101e-11	-2.1587289e-06	0
    CmRoll:	-0.00024783712	-0.00024574208	-2.0950401e-06	0
    CmYaw:	10.197791	10.13149	0.066300726	0
    Cs:	3.2723553e-19	3.2704108e-19	1.9445439e-22	0
    Cs(f):	10.197791	10.13149	0.066300726	0
    Cs(r):	-10.197791	-10.13149	-0.066300726	0

    writing force and moment coefficient files.

Courant Number mean: 0.0051731123 max: 0.090009594
Time = 0.03

PIMPLE: iteration 1
diagonal:  Solving for rho, Initial residual = 0, Final residual = 0, No Iterations 0
smoothSolver:  Solving for Ux, Initial residual = 0.00095085169, Final residual = 7.60763e-08, No Iterations 2
smoothSolver:  Solving for Uy, Initial residual = 0.036483337, Final residual = 2.7840646e-06, No Iterations 2
smoothSolver:  Solving for e, Initial residual = 0.0071052924, Final residual = 7.7858117e-07, No Iterations 2
smoothSolver:  Solving for p, Initial residual = 0.022887201, Final residual = 0.00036427619, No Iterations 1
diagonal:  Solving for rho, Initial residual = 0, Final residual = 0, No Iterations 0
time step continuity errors : sum local = 3.5028937e-07, global = 6.3093456e-09, cumulative = 4.5256357e-08
smoothSolver:  Solving for p, Initial residual = 0.00046427683, Final residual = 6.9946911e-06, No Iterations 1
diagonal:  Solving for rho, Initial residual = 0, Final residual = 0, No Iterations 0
time step continuity errors : sum local = 6.9186621e-09, global = 3.7074234e-10, cumulative = 4.5627099e-08
DILUPBiCGStab:  Solving for omega, Initial residual = 0.00019723348, Final residual = 2.1943835e-14, No Iterations 1
smoothSolver:  Solving for k, Initial residual = 0.0013139078, Final residual = 1.1080745e-08, No Iterations 1
ExecutionTime = 13.14 s  ClockTime = 13 s

forceCoeffs forces write:
    Coefficient	Total	Pressure	Viscous	Internal
    Cd:	20.374759	20.243049	0.13171028	0
    Cd(f):	10.187092	10.121239	0.065853433	0
    Cd(r):	10.187667	10.12181	0.065856845	0
    Cl:	0.00057493271	0.00057152118	3.4115272e-06	0
    Cl(f):	0.00028534014	0.00028576055	-4.2041119e-07	0
    Cl(r):	0.00028959257	0.00028576063	3.8319384e-06	0
    CmPitch:	-2.1262139e-06	-3.9067195e-11	-2.1261748e-06	0
    CmRoll:	-0.00028746635	-0.00028576059	-1.7057636e-06	0
    CmYaw:	10.187379	10.121524	0.065855139	0
    Cs:	3.2724419e-19	3.2704886e-19	1.9532858e-22	0
    Cs(f):	10.187379	10.121524	0.065855139	0
    Cs(r):	-10.187379	-10.121524	-0.065855139	0

    writing force and moment coefficient files.

Courant Number mean: 0.0051694105 max: 0.088882795
Time = 0.031

PIMPLE: iteration 1
diagonal:  Solving for rho, Initial residual = 0, Final residual = 0, No Iterations 0
smoothSolver:  Solving for Ux, Initial residual = 0.0009370137, Final residual = 6.9860923e-08, No Iterations 2
smoothSolver:  Solving for Uy, Initial residual = 0.035314972, Final residual = 2.5351604e-06, No Iterations 2
smoothSolver:  Solving for e, Initial residual = 0.0071203905, Final residual = 7.7202873e-07, No Iterations 2
smoothSolver:  Solving for p, Initial residual = 0.022376285, Final residual = 0.0003422017, No Iterations 1
diagonal:  Solving for rho, Initial residual = 0, Final residual = 0, No Iterations 0
time step continuity errors : sum local = 3.4202957e-07, global = 5.8050529e-09, cumulative = 5.1432152e-08
smoothSolver:  Solving for p, Initial residual = 0.00044662292, Final residual = 6.5158216e-06, No Iterations 1
diagonal:  Solving for rho, Initial residual = 0, Final residual = 0, No Iterations 0
time step continuity errors : sum local = 6.6924744e-09, global = 3.2567467e-10, cumulative = 5.1757827e-08
DILUPBiCGStab:  Solving for omega, Initial residual = 0.00019616868, Final residual = 2.1285267e-14, No Iterations 1
smoothSolver:  Solving for k, Initial residual = 0.0012668245, Final residual = 1.0298131e-08, No Iterations 1
ExecutionTime = 13.48 s  ClockTime = 13 s

forceCoeffs forces write:
    Coefficient	Total	Pressure	Viscous	Internal
    Cd:	20.351408	20.220503	0.13090511	0
    Cd(f):	10.175423	10.109972	0.065451167	0
    Cd(r):	10.175984	10.110531	0.065453943	0
    Cl:	0.00056125449	0.00055847845	2.7760354e-06	0
    Cl(f):	0.00027854952	0.00027923919	-6.8966495e-07	0
    Cl(r):	0.00028270497	0.00027923927	3.4657004e-06	0
    CmPitch:	-2.0777238e-06	-4.1126078e-11	-2.0776827e-06	0
    CmRoll:	-0.00028062724	-0.00027923923	-1.3880177e-06	0
    CmYaw:	10.175704	10.110251	0.065452555	0
    Cs:	3.2716365e-19	3.2696761e-19	1.9603649e-22	0
    Cs(f):	10.175704	10.110251	0.065452555	0
    Cs(r):	-10.175704	-10.110251	-0.065452555	0

    writing force and moment coefficient files.

Courant Number mean: 0.0051655576 max: 0.087829256
Time = 0.032

PIMPLE: iteration 1
diagonal:  Solving for rho, Initial residual = 0, Final residual = 0, No Iterations 0
smoothSolver:  Solving for Ux, Initial residual = 0.00092511578, Final residual = 6.9934431e-08, No Iterations 2
smoothSolver:  Solving for Uy, Initial residual = 0.034685795, Final residual = 2.513024e-06, No Iterations 2
smoothSolver:  Solving for e, Initial residual = 0.0070951275, Final residual = 7.1407097e-07, No Iterations 2
smoothSolver:  Solving for p, Initial residual = 0.021840792, Final residual = 0.00032220995, No Iterations 1
diagonal:  Solving for rho, Initial residual = 0, Final residual = 0, No Iterations 0
time step continuity errors : sum local = 3.3426262e-07, global = 5.7917987e-09, cumulative = 5.7549625e-08
smoothSolver:  Solving for p, Initial residual = 0.00043109092, Final residual = 6.0322212e-06, No Iterations 1
diagonal:  Solving for rho, Initial residual = 0, Final residual = 0, No Iterations 0
time step continuity errors : sum local = 6.4251503e-09, global = 3.024856e-10, cumulative = 5.7852111e-08
DILUPBiCGStab:  Solving for omega, Initial residual = 0.00019516936, Final residual = 2.0282643e-14, No Iterations 1
smoothSolver:  Solving for k, Initial residual = 0.0012235589, Final residual = 9.6750822e-09, No Iterations 1
ExecutionTime = 13.81 s  ClockTime = 14 s

forceCoeffs forces write:
    Coefficient	Total	Pressure	Viscous	Internal
    Cd:	20.33398	20.203733	0.1302478	0
    Cd(f):	10.166749	10.101627	0.065122605	0
    Cd(r):	10.167231	10.102106	0.065125192	0
    Cl:	0.00048171389	0.00047912679	2.587102e-06	0
    Cl(f):	0.00023884352	0.00023956335	-7.1983256e-07	0
    Cl(r):	0.00024287037	0.00023956344	3.3069345e-06	0
    CmPitch:	-2.013426e-06	-4.2466243e-11	-2.0133835e-06	0
    CmRoll:	-0.00024085695	-0.0002395634	-1.293551e-06	0
    CmYaw:	10.16699	10.101866	0.065123898	0
    Cs:	3.2701993e-19	3.2682316e-19	1.9677421e-22	0
    Cs(f):	10.16699	10.101866	0.065123898	0
    Cs(r):	-10.16699	-10.101866	-0.065123898	0

    writing force and moment coefficient files.

Courant Number mean: 0.0051617609 max: 0.086626523
Time = 0.033

PIMPLE: iteration 1
diagonal:  Solving for rho, Initial residual = 0, Final residual = 0, No Iterations 0
smoothSolver:  Solving for Ux, Initial residual = 0.00091641399, Final residual = 6.4151641e-08, No Iterations 2
smoothSolver:  Solving for Uy, Initial residual = 0.033968775, Final residual = 2.3212032e-06, No Iterations 2
smoothSolver:  Solving for e, Initial residual = 0.0070245997, Final residual = 6.9659569e-07, No Iterations 2
smoothSolver:  Solving for p, Initial residual = 0.021340321, Final residual = 0.00029954486, No Iterations 1
diagonal:  Solving for rho, Initial residual = 0, Final residual = 0, No Iterations 0
time step continuity errors : sum local = 3.2212977e-07, global = 5.3025186e-09, cumulative = 6.315463e-08
smoothSolver:  Solving for p, Initial residual = 0.00039711278, Final residual = 5.3282593e-06, No Iterations 1
diagonal:  Solving for rho, Initial residual = 0, Final residual = 0, No Iterations 0
time step continuity errors : sum local = 5.8778805e-09, global = 2.5627426e-10, cumulative = 6.3410904e-08
DILUPBiCGStab:  Solving for omega, Initial residual = 0.00019417036, Final residual = 1.9512533e-14, No Iterations 1
smoothSolver:  Solving for k, Initial residual = 0.0011838165, Final residual = 9.0206456e-09, No Iterations 1
ExecutionTime = 14.14 s  ClockTime = 14 s

forceCoeffs forces write:
    Coefficient	Total	Pressure	Viscous	Internal
    Cd:	20.329436	20.19974	0.12969579	0
    Cd(f):	10.164512	10.099665	0.064846536	0
    Cd(r):	10.164924	10.100075	0.064849251	0
    Cl:	0.00041279204	0.00041007686	2.7151809e-06	0
    Cl(f):	0.00020445659	0.00020503839	-5.8179731e-07	0
    Cl(r):	0.00020833545	0.00020503847	3.2969782e-06	0
    CmPitch:	-1.9394304e-06	-4.2629112e-11	-1.9393878e-06	0
    CmRoll:	-0.00020639602	-0.00020503843	-1.3575905e-06	0
    CmYaw:	10.164718	10.09987	0.064847893	0
    Cs:	3.2684646e-19	3.2664877e-19	1.9769069e-22	0
    Cs(f):	10.164718	10.09987	0.064847893	0
    Cs(r):	-10.164718	-10.09987	-0.064847893	0

    writing force and moment coefficient files.

Courant Number mean: 0.0051579145 max: 0.08573393
Time = 0.034

PIMPLE: iteration 1
diagonal:  Solving for rho, Initial residual = 0, Final residual = 0, No Iterations 0
smoothSolver:  Solving for Ux, Initial residual = 0.00091338702, Final residual = 6.4028035e-08, No Iterations 2
smoothSolver:  Solving for Uy, Initial residual = 0.033426699, Final residual = 2.2806969e-06, No Iterations 2
smoothSolver:  Solving for e, Initial residual = 0.0069567426, Final residual = 6.9787766e-07, No Iterations 2
smoothSolver:  Solving for p, Initial residual = 0.020704737, Final residual = 0.00027952667, No Iterations 1
diagonal:  Solving for rho, Initial residual = 0, Final residual = 0, No Iterations 0
time step continuity errors : sum local = 3.1120646e-07, global = 5.2966366e-09, cumulative = 6.870754e-08
smoothSolver:  Solving for p, Initial residual = 0.0003867678, Final residual = 4.9543229e-06, No Iterations 1
diagonal:  Solving for rho, Initial residual = 0, Final residual = 0, No Iterations 0
time step continuity errors : sum local = 5.653309e-09, global = 2.3696602e-10, cumulative = 6.8944506e-08
DILUPBiCGStab:  Solving for omega, Initial residual = 0.00019321672, Final residual = 1.877063e-14, No Iterations 1
smoothSolver:  Solving for k, Initial residual = 0.0011477523, Final residual = 8.5260477e-09, No Iterations 1
ExecutionTime = 14.46 s  ClockTime = 14 s

forceCoeffs forces write:
    Coefficient	Total	Pressure	Viscous	Internal
    Cd:	20.335807	20.206659	0.1291483	0
    Cd(f):	10.167711	10.103138	0.06457273	0
    Cd(r):	10.168096	10.103521	0.064575568	0
    Cl:	0.00038504815	0.0003822094	2.838751e-06	0
    Cl(f):	0.00019064792	0.00019110466	-4.5673242e-07	0
    Cl(r):	0.00019440022	0.00019110474	3.2954834e-06	0
    CmPitch:	-1.8761493e-06	-4.13586e-11	-1.8761079e-06	0
    CmRoll:	-0.00019252407	-0.0001911047	-1.4193755e-06	0
    CmYaw:	10.167904	10.10333	0.064574149	0
    Cs:	3.2667219e-19	3.2647372e-19	1.9847209e-22	0
    Cs(f):	10.167904	10.10333	0.064574149	0
    Cs(r):	-10.167904	-10.10333	-0.064574149	0

    writing force and moment coefficient files.

Courant Number mean: 0.0051541023 max: 0.08450591
Time = 0.035

PIMPLE: iteration 1
diagonal:  Solving for rho, Initial residual = 0, Final residual = 0, No Iterations 0
smoothSolver:  Solving for Ux, Initial residual = 0.00090552634, Final residual = 6.1611118e-08, No Iterations 2
smoothSolver:  Solving for Uy, Initial residual = 0.03289792, Final residual = 2.1954972e-06, No Iterations 2
smoothSolver:  Solving for e, Initial residual = 0.0068395111, Final residual = 6.3714974e-07, No Iterations 2
smoothSolver:  Solving for p, Initial residual = 0.020389482, Final residual = 0.00026384782, No Iterations 1
diagonal:  Solving for rho, Initial residual = 0, Final residual = 0, No Iterations 0
time step continuity errors : sum local = 3.0375095e-07, global = 5.1537905e-09, cumulative = 7.4098297e-08
smoothSolver:  Solving for p, Initial residual = 0.00035916145, Final residual = 4.4028816e-06, No Iterations 1
diagonal:  Solving for rho, Initial residual = 0, Final residual = 0, No Iterations 0
time step continuity errors : sum local = 5.1908768e-09, global = 2.1727369e-10, cumulative = 7.4315571e-08
DILUPBiCGStab:  Solving for omega, Initial residual = 0.00019213733, Final residual = 1.8267234e-14, No Iterations 1
smoothSolver:  Solving for k, Initial residual = 0.0011144058, Final residual = 8.0262451e-09, No Iterations 1
ExecutionTime = 14.79 s  ClockTime = 15 s

forceCoeffs forces write:
    Coefficient	Total	Pressure	Viscous	Internal
    Cd:	20.340483	20.211953	0.12852991	0
    Cd(f):	10.170051	10.105787	0.064263536	0
    Cd(r):	10.170432	10.106165	0.064266372	0
    Cl:	0.00038058672	0.00037775097	2.8357417e-06	0
    Cl(f):	0.00018846873	0.00018887545	-4.0671496e-07	0
    Cl(r):	0.00019211798	0.00018887553	3.2424566e-06	0
    CmPitch:	-1.8246247e-06	-3.8923259e-11	-1.8245858e-06	0
    CmRoll:	-0.00019029336	-0.00018887549	-1.4178708e-06	0
    CmYaw:	10.170241	10.105976	0.064264954	0
    Cs:	3.2654591e-19	3.2634686e-19	1.9904503e-22	0
    Cs(f):	10.170241	10.105976	0.064264954	0
    Cs(r):	-10.170241	-10.105976	-0.064264954	0

    writing force and moment coefficient files.

Courant Number mean: 0.0051506182 max: 0.083729392
Time = 0.036

PIMPLE: iteration 1
diagonal:  Solving for rho, Initial residual = 0, Final residual = 0, No Iterations 0
smoothSolver:  Solving for Ux, Initial residual = 0.00089719838, Final residual = 5.8994803e-08, No Iterations 2
smoothSolver:  Solving for Uy, Initial residual = 0.031931397, Final residual = 2.082813e-06, No Iterations 2
smoothSolver:  Solving for e, Initial residual = 0.0068168679, Final residual = 6.4479813e-07, No Iterations 2
smoothSolver:  Solving for p, Initial residual = 0.01994581, Final residual = 0.00024895127, No Iterations 1
diagonal:  Solving for rho, Initial residual = 0, Final residual = 0, No Iterations 0
time step continuity errors : sum local = 2.960222e-07, global = 4.9373181e-09, cumulative = 7.9252889e-08
smoothSolver:  Solving for p, Initial residual = 0.00035130389, Final residual = 4.1465715e-06, No Iterations 1
diagonal:  Solving for rho, Initial residual = 0, Final residual = 0, No Iterations 0
time step continuity errors : sum local = 5.0455688e-09, global = 1.9794003e-10, cumulative = 7.9450829e-08
DILUPBiCGStab:  Solving for omega, Initial residual = 0.00019102867, Final residual = 1.7615606e-14, No Iterations 1
smoothSolver:  Solving for k, Initial residual = 0.0010839664, Final residual = 7.6314619e-09, No Iterations 1
ExecutionTime = 15.11 s  ClockTime = 15 s

forceCoeffs forces write:
    Coefficient	Total	Pressure	Viscous	Internal
    Cd:	20.329227	20.201393	0.1278336	0
    Cd(f):	10.164436	10.100521	0.063915384	0
    Cd(r):	10.164791	10.100873	0.063918217	0
    Cl:	0.00035460087	0.00035176757	2.833307e-06	0
    Cl(f):	0.00017552185	0.00017588375	-3.6189274e-07	0
    Cl(r):	0.00017907902	0.00017588382	3.1951998e-06	0
    CmPitch:	-1.7785827e-06	-3.6402353e-11	-1.7785463e-06	0
    CmRoll:	-0.00017730044	-0.00017588378	-1.4166535e-06	0
    CmYaw:	10.164614	10.100697	0.063916801	0
    Cs:	3.2651353e-19	3.2631377e-19	1.9976185e-22	0
    Cs(f):	10.164614	10.100697	0.063916801	0
    Cs(r):	-10.164614	-10.100697	-0.063916801	0

    writing force and moment coefficient files.

Courant Number mean: 0.0051468059 max: 0.082520613
Time = 0.037

PIMPLE: iteration 1
diagonal:  Solving for rho, Initial residual = 0, Final residual = 0, No Iterations 0
smoothSolver:  Solving for Ux, Initial residual = 0.00088190729, Final residual = 5.8415073e-08, No Iterations 2
smoothSolver:  Solving for Uy, Initial residual = 0.031444882, Final residual = 2.0387349e-06, No Iterations 2
smoothSolver:  Solving for e, Initial residual = 0.0067711015, Final residual = 5.8663249e-07, No Iterations 2
smoothSolver:  Solving for p, Initial residual = 0.019672936, Final residual = 0.0002379299, No Iterations 1
diagonal:  Solving for rho, Initial residual = 0, Final residual = 0, No Iterations 0
time step continuity errors : sum local = 2.9191046e-07, global = 5.0296527e-09, cumulative = 8.4480481e-08
smoothSolver:  Solving for p, Initial residual = 0.00033320432, Final residual = 3.8128119e-06, No Iterations 1
[...]

PIMPLE: iteration 1
diagonal:  Solving for rho, Initial residual = 0, Final residual = 0, No Iterations 0
smoothSolver:  Solving for Ux, Initial residual = 0.00052953094, Final residual = 1.6136277e-08, No Iterations 2
smoothSolver:  Solving for Uy, Initial residual = 0.0057811464, Final residual = 2.2306588e-07, No Iterations 2
smoothSolver:  Solving for e, Initial residual = 0.0030106463, Final residual = 8.6691065e-08, No Iterations 2
smoothSolver:  Solving for p, Initial residual = 0.0080101703, Final residual = 2.3105735e-05, No Iterations 1
diagonal:  Solving for rho, Initial residual = 0, Final residual = 0, No Iterations 0
time step continuity errors : sum local = 8.0656209e-08, global = -6.1559399e-09, cumulative = -1.6182206e-08
smoothSolver:  Solving for p, Initial residual = 5.734805e-05, Final residual = 5.7595405e-07, No Iterations 1
diagonal:  Solving for rho, Initial residual = 0, Final residual = 0, No Iterations 0
time step continuity errors : sum local = 2.0001379e-09, global = -4.3204299e-10, cumulative = -1.6614249e-08
DILUPBiCGStab:  Solving for omega, Initial residual = 0.00014717927, Final residual = 3.6678892e-15, No Iterations 1
smoothSolver:  Solving for k, Initial residual = 0.00079571839, Final residual = 2.6334377e-09, No Iterations 1
ExecutionTime = 70.6 s  ClockTime = 71 s

forceCoeffs forces write:
    Coefficient	Total	Pressure	Viscous	Internal
    Cd:	16.800353	16.710102	0.090251403	0
    Cd(f):	8.3603479	8.3151965	0.045151321	0
    Cd(r):	8.4400055	8.3949054	0.045100082	0
    Cl:	0.079657667	0.079708905	-5.123847e-05	0
    Cl(f):	0.039808764	0.039854453	-4.568891e-05	0
    Cl(r):	0.039848903	0.039854453	-5.5495592e-06	0
    CmPitch:	-2.0069707e-05	-3.162702e-11	-2.0069676e-05	0
    CmRoll:	-0.039828833	-0.039854453	2.5619235e-05	0
    CmYaw:	8.4001767	8.355051	0.045125702	0
    Cs:	3.1670705e-19	3.1643315e-19	2.7389748e-22	0
    Cs(f):	8.4001767	8.355051	0.045125702	0
    Cs(r):	-8.4001767	-8.355051	-0.045125702	0

    writing force and moment coefficient files.

Courant Number mean: 0.0049181458 max: 0.051349752
Time = 0.185

PIMPLE: iteration 1
diagonal:  Solving for rho, Initial residual = 0, Final residual = 0, No Iterations 0
smoothSolver:  Solving for Ux, Initial residual = 0.0005294492, Final residual = 1.6083475e-08, No Iterations 2
smoothSolver:  Solving for Uy, Initial residual = 0.0057378765, Final residual = 2.2157607e-07, No Iterations 2
smoothSolver:  Solving for e, Initial residual = 0.0029864851, Final residual = 8.632117e-08, No Iterations 2
smoothSolver:  Solving for p, Initial residual = 0.0080041018, Final residual = 2.3973813e-05, No Iterations 1
diagonal:  Solving for rho, Initial residual = 0, Final residual = 0, No Iterations 0
time step continuity errors : sum local = 8.3449703e-08, global = -6.2790375e-09, cumulative = -2.2893286e-08
smoothSolver:  Solving for p, Initial residual = 5.8318411e-05, Final residual = 6.249228e-07, No Iterations 1
diagonal:  Solving for rho, Initial residual = 0, Final residual = 0, No Iterations 0
time step continuity errors : sum local = 2.1637258e-09, global = -4.7662481e-10, cumulative = -2.3369911e-08
DILUPBiCGStab:  Solving for omega, Initial residual = 0.00014787628, Final residual = 4.4357558e-15, No Iterations 1
smoothSolver:  Solving for k, Initial residual = 0.00079626104, Final residual = 2.6466873e-09, No Iterations 1
ExecutionTime = 70.96 s  ClockTime = 71 s

forceCoeffs forces write:
    Coefficient	Total	Pressure	Viscous	Internal
    Cd:	16.653346	16.563349	0.089997052	0
    Cd(f):	8.2952736	8.2502445	0.045029106	0
    Cd(r):	8.3580721	8.3131041	0.044967946	0
    Cl:	0.062798422	0.062859583	-6.1160485e-05	0
    Cl(f):	0.03138142	0.031429791	-4.8371814e-05	0
    Cl(r):	0.031417003	0.031429791	-1.2788671e-05	0
    CmPitch:	-1.7791604e-05	-3.2960666e-11	-1.7791571e-05	0
    CmRoll:	-0.031399211	-0.031429791	3.0580242e-05	0
    CmYaw:	8.3266728	8.2816743	0.044998526	0
    Cs:	3.1507613e-19	3.1479922e-19	2.7690162e-22	0
    Cs(f):	8.3266728	8.2816743	0.044998526	0
    Cs(r):	-8.3266728	-8.2816743	-0.044998526	0

    writing force and moment coefficient files.

Courant Number mean: 0.0049180467 max: 0.051441442
Time = 0.186

PIMPLE: iteration 1
diagonal:  Solving for rho, Initial residual = 0, Final residual = 0, No Iterations 0
smoothSolver:  Solving for Ux, Initial residual = 0.00052848383, Final residual = 1.6061118e-08, No Iterations 2
smoothSolver:  Solving for Uy, Initial residual = 0.0056947781, Final residual = 2.2030812e-07, No Iterations 2
smoothSolver:  Solving for e, Initial residual = 0.0029642922, Final residual = 8.6104169e-08, No Iterations 2
smoothSolver:  Solving for p, Initial residual = 0.0080349358, Final residual = 2.4927048e-05, No Iterations 1
diagonal:  Solving for rho, Initial residual = 0, Final residual = 0, No Iterations 0
time step continuity errors : sum local = 8.6509171e-08, global = -6.2571599e-09, cumulative = -2.9627071e-08
smoothSolver:  Solving for p, Initial residual = 5.9245946e-05, Final residual = 6.7180988e-07, No Iterations 1
diagonal:  Solving for rho, Initial residual = 0, Final residual = 0, No Iterations 0
time step continuity errors : sum local = 2.3190221e-09, global = -5.0770642e-10, cumulative = -3.0134778e-08
DILUPBiCGStab:  Solving for omega, Initial residual = 0.00014852965, Final residual = 5.291392e-15, No Iterations 1
smoothSolver:  Solving for k, Initial residual = 0.00079675041, Final residual = 2.6611938e-09, No Iterations 1
ExecutionTime = 71.34 s  ClockTime = 71 s

forceCoeffs forces write:
    Coefficient	Total	Pressure	Viscous	Internal
    Cd:	16.469687	16.379938	0.089749067	0
    Cd(f):	8.2143891	8.1694814	0.044907627	0
    Cd(r):	8.2552983	8.2104569	0.044841439	0
    Cl:	0.040909241	0.04097543	-6.6188329e-05	0
    Cl(f):	0.020440275	0.020487715	-4.7439744e-05	0
    Cl(r):	0.020468966	0.020487715	-1.8748585e-05	0
    CmPitch:	-1.4345613e-05	-3.3736156e-11	-1.4345579e-05	0
    CmRoll:	-0.020454621	-0.020487715	3.3094165e-05	0
    CmYaw:	8.2348437	8.1899692	0.044874533	0
    Cs:	3.1320529e-19	3.1292541e-19	2.7987805e-22	0
    Cs(f):	8.2348437	8.1899692	0.044874533	0
    Cs(r):	-8.2348437	-8.1899692	-0.044874533	0

    writing force and moment coefficient files.

Courant Number mean: 0.0049179266 max: 0.051551374
Time = 0.187

PIMPLE: iteration 1
diagonal:  Solving for rho, Initial residual = 0, Final residual = 0, No Iterations 0
smoothSolver:  Solving for Ux, Initial residual = 0.00052735808, Final residual = 1.601604e-08, No Iterations 2
smoothSolver:  Solving for Uy, Initial residual = 0.0056506932, Final residual = 2.1857662e-07, No Iterations 2
smoothSolver:  Solving for e, Initial residual = 0.0029541133, Final residual = 8.5639e-08, No Iterations 2
smoothSolver:  Solving for p, Initial residual = 0.0080765867, Final residual = 2.5747244e-05, No Iterations 1
diagonal:  Solving for rho, Initial residual = 0, Final residual = 0, No Iterations 0
time step continuity errors : sum local = 8.9085433e-08, global = -6.0818452e-09, cumulative = -3.6216623e-08
smoothSolver:  Solving for p, Initial residual = 6.0061156e-05, Final residual = 7.1146402e-07, No Iterations 1
diagonal:  Solving for rho, Initial residual = 0, Final residual = 0, No Iterations 0
time step continuity errors : sum local = 2.4484305e-09, global = -5.2067839e-10, cumulative = -3.6737301e-08
DILUPBiCGStab:  Solving for omega, Initial residual = 0.00014902765, Final residual = 6.1051102e-15, No Iterations 1
smoothSolver:  Solving for k, Initial residual = 0.00079711025, Final residual = 2.6783282e-09, No Iterations 1
ExecutionTime = 71.69 s  ClockTime = 72 s

forceCoeffs forces write:
    Coefficient	Total	Pressure	Viscous	Internal
    Cd:	16.253849	16.164324	0.089525515	0
    Cd(f):	8.1194272	8.0746319	0.044795246	0
    Cd(r):	8.134422	8.0896917	0.044730269	0
    Cl:	0.014994821	0.015059799	-6.4977632e-05	0
    Cl(f):	0.0074875569	0.0075298993	-4.2342424e-05	0
    Cl(r):	0.0075072642	0.0075298994	-2.2635208e-05	0
    CmPitch:	-9.8536413e-06	-3.3478169e-11	-9.8536078e-06	0
    CmRoll:	-0.0074974105	-0.0075298994	3.2488816e-05	0
    CmYaw:	8.1269246	8.0821618	0.044762758	0
    Cs:	3.1118898e-19	3.1090613e-19	2.828518e-22	0
    Cs(f):	8.1269246	8.0821618	0.044762758	0
    Cs(r):	-8.1269246	-8.0821618	-0.044762758	0

    writing force and moment coefficient files.

Courant Number mean: 0.0049177517 max: 0.051671349
Time = 0.188

PIMPLE: iteration 1
diagonal:  Solving for rho, Initial residual = 0, Final residual = 0, No Iterations 0
smoothSolver:  Solving for Ux, Initial residual = 0.00052745053, Final residual = 1.6010314e-08, No Iterations 2
smoothSolver:  Solving for Uy, Initial residual = 0.0056073759, Final residual = 2.1694494e-07, No Iterations 2
smoothSolver:  Solving for e, Initial residual = 0.0029460191, Final residual = 8.4890665e-08, No Iterations 2
smoothSolver:  Solving for p, Initial residual = 0.0081254182, Final residual = 2.6375171e-05, No Iterations 1
diagonal:  Solving for rho, Initial residual = 0, Final residual = 0, No Iterations 0
time step continuity errors : sum local = 9.098135e-08, global = -5.7603314e-09, cumulative = -4.2497633e-08
smoothSolver:  Solving for p, Initial residual = 6.0065537e-05, Final residual = 7.3311247e-07, No Iterations 1
diagonal:  Solving for rho, Initial residual = 0, Final residual = 0, No Iterations 0
time step continuity errors : sum local = 2.5419764e-09, global = -5.1235462e-10, cumulative = -4.3009987e-08
DILUPBiCGStab:  Solving for omega, Initial residual = 0.00014927368, Final residual = 6.5123617e-15, No Iterations 1
smoothSolver:  Solving for k, Initial residual = 0.00079733304, Final residual = 2.6740365e-09, No Iterations 1
ExecutionTime = 72.05 s  ClockTime = 72 s

forceCoeffs forces write:
    Coefficient	Total	Pressure	Viscous	Internal
    Cd:	16.014658	15.925314	0.089343874	0
    Cd(f):	8.0141094	7.969409	0.044700393	0
    Cd(r):	8.0005488	7.9559053	0.044643481	0
    Cl:	-0.013560529	-0.013503617	-5.6912032e-05	0
    Cl(f):	-0.0067847966	-0.0067518084	-3.2988258e-05	0
    Cl(r):	-0.0067757321	-0.0067518083	-2.3923774e-05	0
    CmPitch:	-4.5322743e-06	-3.1928716e-11	-4.5322424e-06	0
    CmRoll:	0.0067802644	0.0067518083	2.8456016e-05	0
    CmYaw:	8.0073291	7.9626572	0.044671937	0
    Cs:	3.0914453e-19	3.0885876e-19	2.8576927e-22	0
    Cs(f):	8.0073291	7.9626572	0.044671937	0
    Cs(r):	-8.0073291	-7.9626572	-0.044671937	0

    writing force and moment coefficient files.

Courant Number mean: 0.0049175207 max: 0.051790801
Time = 0.189

PIMPLE: iteration 1
diagonal:  Solving for rho, Initial residual = 0, Final residual = 0, No Iterations 0
smoothSolver:  Solving for Ux, Initial residual = 0.0005265069, Final residual = 1.6009925e-08, No Iterations 2
smoothSolver:  Solving for Uy, Initial residual = 0.0055789653, Final residual = 2.1625355e-07, No Iterations 2
smoothSolver:  Solving for e, Initial residual = 0.0029423351, Final residual = 8.4590669e-08, No Iterations 2
smoothSolver:  Solving for p, Initial residual = 0.0080859575, Final residual = 2.6442824e-05, No Iterations 1
diagonal:  Solving for rho, Initial residual = 0, Final residual = 0, No Iterations 0
time step continuity errors : sum local = 9.1932551e-08, global = -5.3078268e-09, cumulative = -4.8317814e-08
smoothSolver:  Solving for p, Initial residual = 5.9536381e-05, Final residual = 7.3356351e-07, No Iterations 1
diagonal:  Solving for rho, Initial residual = 0, Final residual = 0, No Iterations 0
time step continuity errors : sum local = 2.57519e-09, global = -4.8084887e-10, cumulative = -4.8798663e-08
DILUPBiCGStab:  Solving for omega, Initial residual = 0.00014918083, Final residual = 5.8073634e-15, No Iterations 1
smoothSolver:  Solving for k, Initial residual = 0.00079731857, Final residual = 2.6896725e-09, No Iterations 1
ExecutionTime = 72.44 s  ClockTime = 72 s

forceCoeffs forces write:
    Coefficient	Total	Pressure	Viscous	Internal
    Cd:	15.764864	15.675645	0.089218598	0
    Cd(f):	7.9039914	7.859361	0.044630407	0
    Cd(r):	7.8608727	7.8162845	0.044588191	0
    Cl:	-0.043118707	-0.04307649	-4.2216832e-05	0
    Cl(f):	-0.021558023	-0.021538245	-1.9778113e-05	0
    Cl(r):	-0.021560684	-0.021538245	-2.2438719e-05	0
    CmPitch:	1.330274e-06	-2.9105738e-11	1.3303031e-06	0
    CmRoll:	0.021559353	0.021538245	2.1108416e-05	0
    CmYaw:	7.882432	7.8378227	0.044609299	0
    Cs:	3.0720593e-19	3.0691764e-19	2.8829546e-22	0
    Cs(f):	7.882432	7.8378227	0.044609299	0
    Cs(r):	-7.882432	-7.8378227	-0.044609299	0

    writing force and moment coefficient files.

Courant Number mean: 0.0049172378 max: 0.051898068
Time = 0.19

PIMPLE: iteration 1
diagonal:  Solving for rho, Initial residual = 0, Final residual = 0, No Iterations 0
smoothSolver:  Solving for Ux, Initial residual = 0.00052706584, Final residual = 1.5954393e-08, No Iterations 2
smoothSolver:  Solving for Uy, Initial residual = 0.0055639737, Final residual = 2.152925e-07, No Iterations 2
smoothSolver:  Solving for e, Initial residual = 0.002932867, Final residual = 8.4639066e-08, No Iterations 2
smoothSolver:  Solving for p, Initial residual = 0.0079910383, Final residual = 2.5917828e-05, No Iterations 1
diagonal:  Solving for rho, Initial residual = 0, Final residual = 0, No Iterations 0
time step continuity errors : sum local = 9.1224437e-08, global = -4.763586e-09, cumulative = -5.3562249e-08
smoothSolver:  Solving for p, Initial residual = 5.8536124e-05, Final residual = 7.0973935e-07, No Iterations 1
diagonal:  Solving for rho, Initial residual = 0, Final residual = 0, No Iterations 0
time step continuity errors : sum local = 2.5226681e-09, global = -4.2597631e-10, cumulative = -5.3988225e-08
DILUPBiCGStab:  Solving for omega, Initial residual = 0.00014869076, Final residual = 5.0910922e-15, No Iterations 1
smoothSolver:  Solving for k, Initial residual = 0.00079690793, Final residual = 2.6727038e-09, No Iterations 1
ExecutionTime = 72.81 s  ClockTime = 73 s

forceCoeffs forces write:
    Coefficient	Total	Pressure	Viscous	Internal
    Cd:	15.520266	15.431105	0.089160337	0
    Cd(f):	7.7961055	7.7515143	0.044591127	0
    Cd(r):	7.72416	7.6795908	0.04456921	0
    Cl:	-0.071945424	-0.071923507	-2.1917595e-05	0
    Cl(f):	-0.035965313	-0.035961753	-3.5594203e-06	0
    Cl(r):	-0.035980111	-0.035961753	-1.8358175e-05	0
    CmPitch:	7.3993521e-06	-2.524871e-11	7.3993774e-06	0
    CmRoll:	0.035972712	0.035961753	1.0958798e-05	0
    CmYaw:	7.7601328	7.7155526	0.044580169	0
    Cs:	3.0552061e-19	3.0523054e-19	2.9006751e-22	0
    Cs(f):	7.7601328	7.7155526	0.044580169	0
    Cs(r):	-7.7601328	-7.7155526	-0.044580169	0

    writing force and moment coefficient files.

Courant Number mean: 0.004916876 max: 0.051984507
Time = 0.191

PIMPLE: iteration 1
diagonal:  Solving for rho, Initial residual = 0, Final residual = 0, No Iterations 0
smoothSolver:  Solving for Ux, Initial residual = 0.00052966784, Final residual = 1.6026027e-08, No Iterations 2
smoothSolver:  Solving for Uy, Initial residual = 0.0055588249, Final residual = 2.1577073e-07, No Iterations 2
smoothSolver:  Solving for e, Initial residual = 0.0029156635, Final residual = 8.3384988e-08, No Iterations 2
smoothSolver:  Solving for p, Initial residual = 0.0078637502, Final residual = 2.4961231e-05, No Iterations 1
diagonal:  Solving for rho, Initial residual = 0, Final residual = 0, No Iterations 0
time step continuity errors : sum local = 8.8950148e-08, global = -4.1370558e-09, cumulative = -5.8125281e-08
smoothSolver:  Solving for p, Initial residual = 5.7122338e-05, Final residual = 6.643199e-07, No Iterations 1
diagonal:  Solving for rho, Initial residual = 0, Final residual = 0, No Iterations 0
time step continuity errors : sum local = 2.390229e-09, global = -3.4814413e-10, cumulative = -5.8473425e-08
DILUPBiCGStab:  Solving for omega, Initial residual = 0.00014779948, Final residual = 4.4323899e-15, No Iterations 1
smoothSolver:  Solving for k, Initial residual = 0.00079613188, Final residual = 2.666174e-09, No Iterations 1
ExecutionTime = 73.19 s  ClockTime = 73 s

forceCoeffs forces write:
    Coefficient	Total	Pressure	Viscous	Internal
    Cd:	15.298669	15.209493	0.089175698	0
    Cd(f):	7.6985072	7.6539206	0.044586638	0
    Cd(r):	7.6001614	7.5555724	0.044589061	0
    Cl:	-0.098345781	-0.098348205	2.4233147e-06	0
    Cl(f):	-0.049159562	-0.049174102	1.4540075e-05	0
    Cl(r):	-0.049186219	-0.049174102	-1.211676e-05	0
    CmPitch:	1.3328397e-05	-2.0786904e-11	1.3328417e-05	0
    CmRoll:	0.049172891	0.049174102	-1.2116574e-06	0
    CmYaw:	7.6493343	7.6047465	0.044587849	0
    Cs:	3.0424586e-19	3.0395491e-19	2.9094642e-22	0
    Cs(f):	7.6493343	7.6047465	0.044587849	0
    Cs(r):	-7.6493343	-7.6047465	-0.044587849	0

    writing force and moment coefficient files.

Courant Number mean: 0.0049165061 max: 0.052047497
Time = 0.192

PIMPLE: iteration 1
diagonal:  Solving for rho, Initial residual = 0, Final residual = 0, No Iterations 0
smoothSolver:  Solving for Ux, Initial residual = 0.00053328208, Final residual = 1.6153242e-08, No Iterations 2
smoothSolver:  Solving for Uy, Initial residual = 0.0055522955, Final residual = 2.1651817e-07, No Iterations 2
smoothSolver:  Solving for e, Initial residual = 0.0028881218, Final residual = 8.2825288e-08, No Iterations 2
smoothSolver:  Solving for p, Initial residual = 0.0077244962, Final residual = 2.3561704e-05, No Iterations 1
diagonal:  Solving for rho, Initial residual = 0, Final residual = 0, No Iterations 0
time step continuity errors : sum local = 8.4989388e-08, global = -3.481966e-09, cumulative = -6.1955391e-08
smoothSolver:  Solving for p, Initial residual = 5.5420534e-05, Final residual = 5.9776637e-07, No Iterations 1
diagonal:  Solving for rho, Initial residual = 0, Final residual = 0, No Iterations 0
time step continuity errors : sum local = 2.1765726e-09, global = -2.5140736e-10, cumulative = -6.2206799e-08
DILUPBiCGStab:  Solving for omega, Initial residual = 0.00014658654, Final residual = 4.2022896e-15, No Iterations 1
smoothSolver:  Solving for k, Initial residual = 0.00079531823, Final residual = 2.6212145e-09, No Iterations 1
ExecutionTime = 73.58 s  ClockTime = 74 s

forceCoeffs forces write:
    Coefficient	Total	Pressure	Viscous	Internal
    Cd:	15.118713	15.029447	0.089266273	0
    Cd(f):	7.6197542	7.5751357	0.044618537	0
    Cd(r):	7.4989587	7.454311	0.044647735	0
    Cl:	-0.12079551	-0.12082471	2.9198008e-05	0
    Cl(f):	-0.060378974	-0.060412356	3.338199e-05	0
    Cl(r):	-0.06041654	-0.060412356	-4.1839823e-06	0
    CmPitch:	1.878297e-05	-1.6251609e-11	1.8782986e-05	0
    CmRoll:	0.060397757	0.060412356	-1.4599004e-05	0
    CmYaw:	7.5593565	7.5147233	0.044633136	0
    Cs:	3.0354039e-19	3.0324966e-19	2.9072792e-22	0
    Cs(f):	7.5593565	7.5147233	0.044633136	0
    Cs(r):	-7.5593565	-7.5147233	-0.044633136	0

    writing force and moment coefficient files.

Courant Number mean: 0.0049162075 max: 0.052090937
Time = 0.193

PIMPLE: iteration 1
diagonal:  Solving for rho, Initial residual = 0, Final residual = 0, No Iterations 0
smoothSolver:  Solving for Ux, Initial residual = 0.00053627814, Final residual = 1.616202e-08, No Iterations 2
smoothSolver:  Solving for Uy, Initial residual = 0.0055373026, Final residual = 2.1532472e-07, No Iterations 2
smoothSolver:  Solving for e, Initial residual = 0.0028561275, Final residual = 8.2072971e-08, No Iterations 2
smoothSolver:  Solving for p, Initial residual = 0.0075823307, Final residual = 2.2091075e-05, No Iterations 1
diagonal:  Solving for rho, Initial residual = 0, Final residual = 0, No Iterations 0
time step continuity errors : sum local = 8.063611e-08, global = -2.8471619e-09, cumulative = -6.505396e-08
smoothSolver:  Solving for p, Initial residual = 5.3640139e-05, Final residual = 5.2602321e-07, No Iterations 1
diagonal:  Solving for rho, Initial residual = 0, Final residual = 0, No Iterations 0
time step continuity errors : sum local = 1.9378912e-09, global = -1.4034128e-10, cumulative = -6.5194302e-08
