/*---------------------------------------------------------------------------*\
| =========                 |                                                 |
| \\      /  F ield         | OpenFOAM: The Open Source CFD Toolbox           |
|  \\    /   O peration     | Version:  2406                                  |
|   \\  /    A nd           | Website:  www.openfoam.com                      |
|    \\/     M anipulation  |                                                 |
\*---------------------------------------------------------------------------*/
Build  : _be01ca78-20240625 OPENFOAM=2406 version=2406
Arch   : "LSB;label=32;scalar=64"
Exec   : rhoPimpleFoam
Date   : Oct 28 2024
Time   : 08:50:00
Host   : jakub-Lenovo-ideapad-330-15ICH
PID    : 16911
I/O    : uncollated
Case   : /home/jakub/Desktop/AE4202/CFD_assignment
nProcs : 1
trapFpe: Floating point exception trapping enabled (FOAM_SIGFPE).
fileModificationChecking : Monitoring run-time modified files using timeStampMaster (fileModificationSkew 5, maxFileModificationPolls 20)
allowSystemOperations : Allowing user-supplied system call operations

// * * * * * * * * * * * * * * * * * * * * * * * * * * * * * * * * * * * * * //
Create time

Create mesh for time = 0


PIMPLE: Operating solver in PISO mode

Reading thermophysical properties

Selecting thermodynamics package 
{
    type            hePsiThermo;
    mixture         pureMixture;
    transport       sutherland;
    thermo          hConst;
    equationOfState perfectGas;
    specie          specie;
    energy          sensibleInternalEnergy;
}

Reading field U

Reading/calculating face flux field phi

Creating turbulence model

Selecting turbulence model type RAS
Selecting RAS turbulence model kOmegaSST
Selecting patchDistMethod meshWave
RAS
{
    RASModel        kOmegaSST;
    turbulence      on;
    printCoeffs     on;
    alphaK1         0.85;
    alphaK2         1;
    alphaOmega1     0.5;
    alphaOmega2     0.856;
    gamma1          0.55555556;
    gamma2          0.44;
    beta1           0.075;
    beta2           0.0828;
    betaStar        0.09;
    a1              0.31;
    b1              1;
    c1              10;
    F3              false;
    decayControl    false;
    kInf            0;
    omegaInf        0;
}

Creating field dpdt

Creating field kinetic energy K

No MRF models present

No finite volume options present
Courant Number mean: 0.020879962 max: 0.31660827

Starting time loop

fieldAverage fieldAverage1:
    Restarting averaging for fields:
        U: starting averaging at time 0
        p: starting averaging at time 0
        nut: starting averaging at time 0
        T: starting averaging at time 0

forceCoeffs forces:
    p: p
    U: U
    rho: rhoInf
    Freestream density (rhoInf) set to 1
    Not including porosity effects
    magUInf: 0.17748239
    lRef   : 1
    Aref   : 1
    rhoInf : 1
    Selecting all coefficients
    - Drag force: Cd
    - Drag force front: Cd(f)
    - Drag force rear: Cd(r)
    - Lift force: Cl
    - Lift force front: Cl(f)
    - Lift force rear: Cl(r)
    - Pitch moment: CmPitch
    - Roll moment: CmRoll
    - Yaw moment: CmYaw
    - Side force: Cs
    - Side force front: Cs(f)
    - Side force rear: Cs(r)


Sampled set:
    top -> raw
    bottom -> raw

Courant Number mean: 0.020879962 max: 0.31660827
Time = 0.005

PIMPLE: iteration 1
diagonal:  Solving for rho, Initial residual = 0, Final residual = 0, No Iterations 0
smoothSolver:  Solving for Ux, Initial residual = 0.99999723, Final residual = 7.4176837e-08, No Iterations 6
smoothSolver:  Solving for Uy, Initial residual = 1, Final residual = 1.5941078e-07, No Iterations 6
smoothSolver:  Solving for e, Initial residual = 0.99992908, Final residual = 1.5293684e-06, No Iterations 4
smoothSolver:  Solving for p, Initial residual = 1, Final residual = 0.0845564, No Iterations 7
diagonal:  Solving for rho, Initial residual = 0, Final residual = 0, No Iterations 0
time step continuity errors : sum local = 3.805456e-06, global = -5.6037361e-07, cumulative = -5.6037361e-07
smoothSolver:  Solving for p, Initial residual = 0.057366053, Final residual = 8.5745258e-06, No Iterations 23
diagonal:  Solving for rho, Initial residual = 0, Final residual = 0, No Iterations 0
time step continuity errors : sum local = 1.9672951e-09, global = 6.7639691e-10, cumulative = -5.5969721e-07
DILUPBiCGStab:  Solving for omega, Initial residual = 0.0039208384, Final residual = 1.7144813e-12, No Iterations 2
smoothSolver:  Solving for k, Initial residual = 1, Final residual = 6.8006946e-07, No Iterations 2
ExecutionTime = 2.85 s  ClockTime = 3 s

forceCoeffs forces write:
    Coefficient	Total	Pressure	Viscous	Internal
    Cd:	16.891249	16.805741	0.085507477	0
    Cd(f):	8.4479782	8.4052241	0.042754184	0
    Cd(r):	8.4432705	8.4005172	0.042753294	0
    Cl:	-0.0047077831	-0.0047068929	-8.902492e-07	0
    Cl(f):	-0.0023520955	-0.0023534465	1.350998e-06	0
    Cl(r):	-0.0023556876	-0.0023534464	-2.2412472e-06	0
    CmPitch:	1.7960798e-06	-4.2840566e-11	1.7961226e-06	0
    CmRoll:	0.0023538916	0.0023534464	4.451246e-07	0
    CmYaw:	8.4456243	8.4028706	0.042753739	0
    Cs:	5.7798261e-19	5.8790674e-19	-9.9241229e-21	0
    Cs(f):	8.4456243	8.4028706	0.042753739	0
    Cs(r):	-8.4456243	-8.4028706	-0.042753739	0

    writing force and moment coefficient files.

Courant Number mean: 0.020816976 max: 0.29786539
Time = 0.01

PIMPLE: iteration 1
diagonal:  Solving for rho, Initial residual = 0, Final residual = 0, No Iterations 0
smoothSolver:  Solving for Ux, Initial residual = 0.02157463, Final residual = 2.3064556e-07, No Iterations 4
smoothSolver:  Solving for Uy, Initial residual = 0.33823525, Final residual = 2.5798324e-06, No Iterations 4
smoothSolver:  Solving for e, Initial residual = 0.061805579, Final residual = 1.2406263e-06, No Iterations 4
smoothSolver:  Solving for p, Initial residual = 0.16397106, Final residual = 0.011680484, No Iterations 3
diagonal:  Solving for rho, Initial residual = 0, Final residual = 0, No Iterations 0
time step continuity errors : sum local = 3.0579334e-06, global = -4.0417769e-07, cumulative = -9.638749e-07
smoothSolver:  Solving for p, Initial residual = 0.0092222546, Final residual = 8.4316641e-06, No Iterations 8
diagonal:  Solving for rho, Initial residual = 0, Final residual = 0, No Iterations 0
time step continuity errors : sum local = 2.8305824e-09, global = -9.4110819e-11, cumulative = -9.6396901e-07
DILUPBiCGStab:  Solving for omega, Initial residual = 0.0039358331, Final residual = 5.7579437e-11, No Iterations 1
smoothSolver:  Solving for k, Initial residual = 0.30364176, Final residual = 4.055867e-08, No Iterations 2
ExecutionTime = 3.15 s  ClockTime = 3 s

forceCoeffs forces write:
    Coefficient	Total	Pressure	Viscous	Internal
    Cd:	21.659539	21.591199	0.068339884	0
    Cd(f):	10.830155	10.795984	0.034171279	0
    Cd(r):	10.829383	10.795215	0.034168605	0
    Cl:	-0.00077191068	-0.00076923738	-2.6732934e-06	0
    Cl(f):	-0.00038476852	-0.00038461863	-1.4988986e-07	0
    Cl(r):	-0.00038714216	-0.00038461875	-2.5234035e-06	0
    CmPitch:	1.1868202e-06	6.3319815e-11	1.1867568e-06	0
    CmRoll:	0.00038595534	0.00038461869	1.3366467e-06	0
    CmYaw:	10.829769	10.795599	0.034169942	0
    Cs:	5.8633861e-19	5.9173889e-19	-5.4002754e-21	0
    Cs(f):	10.829769	10.795599	0.034169942	0
    Cs(r):	-10.829769	-10.795599	-0.034169942	0

    writing force and moment coefficient files.

Courant Number mean: 0.020758472 max: 0.2896942
Time = 0.015

PIMPLE: iteration 1
diagonal:  Solving for rho, Initial residual = 0, Final residual = 0, No Iterations 0
smoothSolver:  Solving for Ux, Initial residual = 0.012356163, Final residual = 1.0202767e-07, No Iterations 4
smoothSolver:  Solving for Uy, Initial residual = 0.22643202, Final residual = 1.331681e-06, No Iterations 4
smoothSolver:  Solving for e, Initial residual = 0.038492146, Final residual = 3.0054508e-07, No Iterations 4
smoothSolver:  Solving for p, Initial residual = 0.14229669, Final residual = 0.0079340767, No Iterations 3
diagonal:  Solving for rho, Initial residual = 0, Final residual = 0, No Iterations 0
time step continuity errors : sum local = 3.107217e-06, global = -2.8759315e-07, cumulative = -1.2515622e-06
smoothSolver:  Solving for p, Initial residual = 0.0071226943, Final residual = 6.2684112e-06, No Iterations 8
diagonal:  Solving for rho, Initial residual = 0, Final residual = 0, No Iterations 0
time step continuity errors : sum local = 2.7653249e-09, global = 1.8503252e-10, cumulative = -1.2513771e-06
DILUPBiCGStab:  Solving for omega, Initial residual = 0.0039581552, Final residual = 5.4665635e-11, No Iterations 1
smoothSolver:  Solving for k, Initial residual = 0.16296449, Final residual = 2.1197807e-08, No Iterations 2
ExecutionTime = 3.45 s  ClockTime = 4 s

forceCoeffs forces write:
    Coefficient	Total	Pressure	Viscous	Internal
    Cd:	19.983711	19.921731	0.06197988	0
    Cd(f):	9.990882	9.9598884	0.030993541	0
    Cd(r):	9.9928292	9.9618429	0.030986339	0
    Cl:	0.0019472787	0.0019544808	-7.2021208e-06	0
    Cl(f):	0.00097428599	0.00097724051	-2.9545236e-06	0
    Cl(r):	0.00097299273	0.00097724033	-4.2475971e-06	0
    CmPitch:	6.466305e-07	9.3752547e-11	6.4653674e-07	0
    CmRoll:	-0.00097363936	-0.00097724042	3.6010604e-06	0
    CmYaw:	9.9918556	9.9608657	0.03098994	0
    Cs:	5.8721948e-19	5.9275529e-19	-5.5358101e-21	0
    Cs(f):	9.9918556	9.9608657	0.03098994	0
    Cs(r):	-9.9918556	-9.9608657	-0.03098994	0

    writing force and moment coefficient files.

Courant Number mean: 0.020707535 max: 0.28285039
Time = 0.02

PIMPLE: iteration 1
diagonal:  Solving for rho, Initial residual = 0, Final residual = 0, No Iterations 0
smoothSolver:  Solving for Ux, Initial residual = 0.0078388617, Final residual = 6.315271e-08, No Iterations 4
smoothSolver:  Solving for Uy, Initial residual = 0.15459024, Final residual = 8.8466025e-07, No Iterations 4
smoothSolver:  Solving for e, Initial residual = 0.034789396, Final residual = 2.6738746e-07, No Iterations 4
smoothSolver:  Solving for p, Initial residual = 0.11547604, Final residual = 0.0057939589, No Iterations 3
diagonal:  Solving for rho, Initial residual = 0, Final residual = 0, No Iterations 0
time step continuity errors : sum local = 2.8453457e-06, global = -2.2945019e-07, cumulative = -1.4808273e-06
smoothSolver:  Solving for p, Initial residual = 0.005722337, Final residual = 4.1384071e-06, No Iterations 8
diagonal:  Solving for rho, Initial residual = 0, Final residual = 0, No Iterations 0
time step continuity errors : sum local = 2.1141302e-09, global = 1.9807367e-10, cumulative = -1.4806292e-06
DILUPBiCGStab:  Solving for omega, Initial residual = 0.0038563958, Final residual = 4.8091085e-11, No Iterations 1
smoothSolver:  Solving for k, Initial residual = 0.10448316, Final residual = 7.2305466e-06, No Iterations 1
ExecutionTime = 3.78 s  ClockTime = 4 s

forceCoeffs forces write:
    Coefficient	Total	Pressure	Viscous	Internal
    Cd:	17.245144	17.182467	0.062676943	0
    Cd(f):	8.621238	8.5898939	0.031344097	0
    Cd(r):	8.6239061	8.5925732	0.031332846	0
    Cl:	0.0026681381	0.0026793891	-1.1251047e-05	0
    Cl(f):	0.001334406	0.0013396946	-5.2886494e-06	0
    Cl(r):	0.0013337321	0.0013396945	-5.9623978e-06	0
    CmPitch:	3.3692324e-07	4.9048811e-11	3.3687419e-07	0
    CmRoll:	-0.001334069	-0.0013396946	5.6255236e-06	0
    CmYaw:	8.622572	8.5912335	0.031338471	0
    Cs:	5.8796643e-19	5.9350037e-19	-5.5339365e-21	0
    Cs(f):	8.622572	8.5912335	0.031338471	0
    Cs(r):	-8.622572	-8.5912335	-0.031338471	0

    writing force and moment coefficient files.

Courant Number mean: 0.020651798 max: 0.27666209
Time = 0.025

PIMPLE: iteration 1
diagonal:  Solving for rho, Initial residual = 0, Final residual = 0, No Iterations 0
smoothSolver:  Solving for Ux, Initial residual = 0.0069709623, Final residual = 4.5930205e-08, No Iterations 4
smoothSolver:  Solving for Uy, Initial residual = 0.13853174, Final residual = 6.5638084e-07, No Iterations 4
smoothSolver:  Solving for e, Initial residual = 0.030877019, Final residual = 2.1719584e-07, No Iterations 4
smoothSolver:  Solving for p, Initial residual = 0.10783077, Final residual = 0.0052445051, No Iterations 3
diagonal:  Solving for rho, Initial residual = 0, Final residual = 0, No Iterations 0
time step continuity errors : sum local = 2.9302013e-06, global = -1.5328651e-07, cumulative = -1.6339158e-06
smoothSolver:  Solving for p, Initial residual = 0.0050759508, Final residual = 6.1702394e-06, No Iterations 7
diagonal:  Solving for rho, Initial residual = 0, Final residual = 0, No Iterations 0
time step continuity errors : sum local = 3.5453544e-09, global = 3.4440722e-10, cumulative = -1.6335713e-06
DILUPBiCGStab:  Solving for omega, Initial residual = 0.0037859734, Final residual = 3.947522e-11, No Iterations 1
smoothSolver:  Solving for k, Initial residual = 0.073665688, Final residual = 5.1578641e-06, No Iterations 1
ExecutionTime = 4.1 s  ClockTime = 4 s

forceCoeffs forces write:
    Coefficient	Total	Pressure	Viscous	Internal
    Cd:	16.209314	16.145062	0.064252682	0
    Cd(f):	8.1043733	8.0722412	0.032132067	0
    Cd(r):	8.1049412	8.0728206	0.032120614	0
    Cl:	0.00056790477	0.00057935732	-1.1452553e-05	0
    Cl(f):	0.00028437799	0.00028967865	-5.3006668e-06	0
    Cl(r):	0.00028352678	0.00028967867	-6.1518864e-06	0
    CmPitch:	4.2560018e-07	-9.622014e-12	4.256098e-07	0
    CmRoll:	-0.00028395238	-0.00028967866	5.7262766e-06	0
    CmYaw:	8.1046572	8.0725309	0.032126341	0
    Cs:	5.8770096e-19	5.9326268e-19	-5.5617273e-21	0
    Cs(f):	8.1046572	8.0725309	0.032126341	0
    Cs(r):	-8.1046572	-8.0725309	-0.032126341	0

    writing force and moment coefficient files.

Courant Number mean: 0.020596078 max: 0.27093933
Time = 0.03

PIMPLE: iteration 1
diagonal:  Solving for rho, Initial residual = 0, Final residual = 0, No Iterations 0
smoothSolver:  Solving for Ux, Initial residual = 0.0063035163, Final residual = 9.600038e-06, No Iterations 2
smoothSolver:  Solving for Uy, Initial residual = 0.12386462, Final residual = 5.0158853e-07, No Iterations 4
smoothSolver:  Solving for e, Initial residual = 0.028243805, Final residual = 1.7482959e-07, No Iterations 4
smoothSolver:  Solving for p, Initial residual = 0.10618576, Final residual = 0.004706644, No Iterations 3
diagonal:  Solving for rho, Initial residual = 0, Final residual = 0, No Iterations 0
time step continuity errors : sum local = 2.9167788e-06, global = -1.238821e-07, cumulative = -1.7574534e-06
smoothSolver:  Solving for p, Initial residual = 0.0046631352, Final residual = 4.3476531e-06, No Iterations 7
diagonal:  Solving for rho, Initial residual = 0, Final residual = 0, No Iterations 0
time step continuity errors : sum local = 2.7905649e-09, global = 2.4789693e-10, cumulative = -1.7572056e-06
DILUPBiCGStab:  Solving for omega, Initial residual = 0.0037249443, Final residual = 3.44164e-11, No Iterations 1
smoothSolver:  Solving for k, Initial residual = 0.054826891, Final residual = 3.8580046e-06, No Iterations 1
ExecutionTime = 4.39 s  ClockTime = 4 s

forceCoeffs forces write:
    Coefficient	Total	Pressure	Viscous	Internal
    Cd:	16.570961	16.507114	0.063846441	0
    Cd(f):	8.2856834	8.253754	0.031929399	0
    Cd(r):	8.2852773	8.2533602	0.031917042	0
    Cl:	-0.00040612899	-0.00039377173	-1.2357254e-05	0
    Cl(f):	-0.00020244035	-0.0001968859	-5.5544511e-06	0
    Cl(r):	-0.00020368864	-0.00019688584	-6.8028027e-06	0
    CmPitch:	6.2414594e-07	-2.9824779e-11	6.2417576e-07	0
    CmRoll:	0.00020306449	0.00019688587	6.1786269e-06	0
    CmYaw:	8.2854803	8.2535571	0.031923221	0
    Cs:	5.8713879e-19	5.9271739e-19	-5.5786072e-21	0
    Cs(f):	8.2854803	8.2535571	0.031923221	0
    Cs(r):	-8.2854803	-8.2535571	-0.031923221	0

    writing force and moment coefficient files.

Courant Number mean: 0.020541576 max: 0.26721259
Time = 0.035

PIMPLE: iteration 1
diagonal:  Solving for rho, Initial residual = 0, Final residual = 0, No Iterations 0
smoothSolver:  Solving for Ux, Initial residual = 0.0056925812, Final residual = 8.1962156e-06, No Iterations 2
smoothSolver:  Solving for Uy, Initial residual = 0.10896405, Final residual = 3.9833374e-07, No Iterations 4
smoothSolver:  Solving for e, Initial residual = 0.026889379, Final residual = 1.4427005e-07, No Iterations 4
smoothSolver:  Solving for p, Initial residual = 0.1000548, Final residual = 0.0040995102, No Iterations 3
diagonal:  Solving for rho, Initial residual = 0, Final residual = 0, No Iterations 0
time step continuity errors : sum local = 2.8115244e-06, global = -1.2287718e-07, cumulative = -1.8800827e-06
smoothSolver:  Solving for p, Initial residual = 0.0039941558, Final residual = 9.0301813e-06, No Iterations 6
diagonal:  Solving for rho, Initial residual = 0, Final residual = 0, No Iterations 0
time step continuity errors : sum local = 6.4181213e-09, global = 3.4384603e-10, cumulative = -1.8797389e-06
DILUPBiCGStab:  Solving for omega, Initial residual = 0.0036573488, Final residual = 3.1497721e-11, No Iterations 1
smoothSolver:  Solving for k, Initial residual = 0.042571768, Final residual = 2.944319e-06, No Iterations 1
ExecutionTime = 4.67 s  ClockTime = 5 s

forceCoeffs forces write:
    Coefficient	Total	Pressure	Viscous	Internal
    Cd:	17.232263	17.17023	0.062033037	0
    Cd(f):	8.616785	8.585763	0.031021945	0
    Cd(r):	8.6154781	8.584467	0.031011092	0
    Cl:	-0.0013068797	-0.0012960268	-1.0852883e-05	0
    Cl(f):	-0.00065276799	-0.0006480134	-4.754588e-06	0
    Cl(r):	-0.00065411166	-0.00064801337	-6.0982955e-06	0
    CmPitch:	6.7183609e-07	-1.7664518e-11	6.7185376e-07	0
    CmRoll:	0.00065343983	0.00064801338	5.4264417e-06	0
    CmYaw:	8.6161316	8.585115	0.031016519	0
    Cs:	5.8614954e-19	5.9173629e-19	-5.5867525e-21	0
    Cs(f):	8.6161316	8.585115	0.031016519	0
    Cs(r):	-8.6161316	-8.585115	-0.031016519	0

    writing force and moment coefficient files.

Courant Number mean: 0.020487189 max: 0.26721368
Time = 0.04

PIMPLE: iteration 1
diagonal:  Solving for rho, Initial residual = 0, Final residual = 0, No Iterations 0
smoothSolver:  Solving for Ux, Initial residual = 0.0052796445, Final residual = 7.2117383e-06, No Iterations 2
smoothSolver:  Solving for Uy, Initial residual = 0.099859483, Final residual = 3.2339994e-07, No Iterations 4
smoothSolver:  Solving for e, Initial residual = 0.025018078, Final residual = 1.1900462e-07, No Iterations 4
smoothSolver:  Solving for p, Initial residual = 0.093408118, Final residual = 0.0036044552, No Iterations 3
diagonal:  Solving for rho, Initial residual = 0, Final residual = 0, No Iterations 0
time step continuity errors : sum local = 2.7197709e-06, global = -1.2465727e-07, cumulative = -2.0043962e-06
smoothSolver:  Solving for p, Initial residual = 0.0035153628, Final residual = 6.7314125e-06, No Iterations 6
diagonal:  Solving for rho, Initial residual = 0, Final residual = 0, No Iterations 0
time step continuity errors : sum local = 5.2486719e-09, global = 1.9558558e-10, cumulative = -2.0042006e-06
DILUPBiCGStab:  Solving for omega, Initial residual = 0.0035924241, Final residual = 2.8615005e-11, No Iterations 1
smoothSolver:  Solving for k, Initial residual = 0.034218852, Final residual = 2.3043679e-06, No Iterations 1
ExecutionTime = 4.97 s  ClockTime = 5 s

forceCoeffs forces write:
    Coefficient	Total	Pressure	Viscous	Internal
    Cd:	17.423918	17.363647	0.060270538	0
    Cd(f):	8.712267	8.682127	0.030139975	0
    Cd(r):	8.711651	8.6815205	0.030130563	0
    Cl:	-0.00061599645	-0.00060658448	-9.4119629e-06	0
    Cl(f):	-0.00030728829	-0.00030329223	-3.9960586e-06	0
    Cl(r):	-0.00030870816	-0.00030329225	-5.4159043e-06	0
    CmPitch:	7.0993307e-07	1.0224782e-11	7.0992285e-07	0
    CmRoll:	0.00030799822	0.00030329224	4.7059814e-06	0
    CmYaw:	8.711959	8.6818237	0.030135269	0
    Cs:	5.8571314e-19	5.9132517e-19	-5.612033e-21	0
    Cs(f):	8.711959	8.6818237	0.030135269	0
    Cs(r):	-8.711959	-8.6818237	-0.030135269	0

    writing force and moment coefficient files.

Courant Number mean: 0.020432249 max: 0.26721592
Time = 0.045

PIMPLE: iteration 1
diagonal:  Solving for rho, Initial residual = 0, Final residual = 0, No Iterations 0
smoothSolver:  Solving for Ux, Initial residual = 0.004937877, Final residual = 6.1733368e-06, No Iterations 2
smoothSolver:  Solving for Uy, Initial residual = 0.092103055, Final residual = 2.6068544e-07, No Iterations 4
smoothSolver:  Solving for e, Initial residual = 0.023472765, Final residual = 1.0091941e-07, No Iterations 4
smoothSolver:  Solving for p, Initial residual = 0.090696587, Final residual = 0.0031874594, No Iterations 3
diagonal:  Solving for rho, Initial residual = 0, Final residual = 0, No Iterations 0
time step continuity errors : sum local = 2.624779e-06, global = -1.1537352e-07, cumulative = -2.1195741e-06
smoothSolver:  Solving for p, Initial residual = 0.0031606179, Final residual = 5.1116094e-06, No Iterations 6
diagonal:  Solving for rho, Initial residual = 0, Final residual = 0, No Iterations 0
time step continuity errors : sum local = 4.3233135e-09, global = 1.0119993e-10, cumulative = -2.1194729e-06
DILUPBiCGStab:  Solving for omega, Initial residual = 0.0035500906, Final residual = 2.5734515e-11, No Iterations 1
smoothSolver:  Solving for k, Initial residual = 0.028278072, Final residual = 1.8727267e-06, No Iterations 1
ExecutionTime = 5.26 s  ClockTime = 5 s

forceCoeffs forces write:
    Coefficient	Total	Pressure	Viscous	Internal
    Cd:	17.10029	17.040907	0.059382592	0
    Cd(f):	8.5498954	8.520199	0.029696467	0
    Cd(r):	8.5503944	8.5207083	0.029686125	0
    Cl:	0.00049897703	0.00050931874	-1.0341709e-05	0
    Cl(f):	0.00025007563	0.0002546594	-4.5837704e-06	0
    Cl(r):	0.0002489014	0.00025465934	-5.7579386e-06	0
    CmPitch:	5.8711314e-07	2.9065544e-11	5.8708407e-07	0
    CmRoll:	-0.00024948852	-0.00025465937	5.1708545e-06	0
    CmYaw:	8.5501449	8.5204536	0.029691296	0
    Cs:	5.8581136e-19	5.9141539e-19	-5.6040335e-21	0
    Cs(f):	8.5501449	8.5204536	0.029691296	0
    Cs(r):	-8.5501449	-8.5204536	-0.029691296	0

    writing force and moment coefficient files.

Courant Number mean: 0.020378457 max: 0.26721942
Time = 0.05

PIMPLE: iteration 1
diagonal:  Solving for rho, Initial residual = 0, Final residual = 0, No Iterations 0
smoothSolver:  Solving for Ux, Initial residual = 0.0046168489, Final residual = 5.3721696e-06, No Iterations 2
smoothSolver:  Solving for Uy, Initial residual = 0.084691868, Final residual = 2.1546259e-07, No Iterations 4
smoothSolver:  Solving for e, Initial residual = 0.022631356, Final residual = 8.7035438e-08, No Iterations 4
smoothSolver:  Solving for p, Initial residual = 0.085986557, Final residual = 0.0028295785, No Iterations 3
diagonal:  Solving for rho, Initial residual = 0, Final residual = 0, No Iterations 0
time step continuity errors : sum local = 2.515661e-06, global = -9.9186452e-08, cumulative = -2.2186593e-06
smoothSolver:  Solving for p, Initial residual = 0.002848992, Final residual = 3.9942995e-06, No Iterations 6
diagonal:  Solving for rho, Initial residual = 0, Final residual = 0, No Iterations 0
time step continuity errors : sum local = 3.6251552e-09, global = 4.5984619e-11, cumulative = -2.2186134e-06
DILUPBiCGStab:  Solving for omega, Initial residual = 0.0035130257, Final residual = 2.3543127e-11, No Iterations 1
smoothSolver:  Solving for k, Initial residual = 0.023885372, Final residual = 1.5794462e-06, No Iterations 1
ExecutionTime = 5.54 s  ClockTime = 6 s

forceCoeffs forces write:
    Coefficient	Total	Pressure	Viscous	Internal
    Cd:	16.704755	16.645559	0.059195382	0
    Cd(f):	8.3521148	8.3225113	0.029603526	0
    Cd(r):	8.3526398	8.3230479	0.029591855	0
    Cl:	0.0005249545	0.00053662565	-1.1671156e-05	0
    Cl(f):	0.00026297381	0.00026831286	-5.3390459e-06	0
    Cl(r):	0.00026198069	0.0002683128	-6.3321097e-06	0
    CmPitch:	4.9656065e-07	2.8757785e-11	4.9653189e-07	0
    CmRoll:	-0.00026247725	-0.00026831283	5.8355778e-06	0
    CmYaw:	8.3523773	8.3227796	0.029597691	0
    Cs:	5.8601082e-19	5.9161605e-19	-5.6052319e-21	0
    Cs(f):	8.3523773	8.3227796	0.029597691	0
    Cs(r):	-8.3523773	-8.3227796	-0.029597691	0

    writing force and moment coefficient files.

Courant Number mean: 0.020324693 max: 0.26722064
Time = 0.055

PIMPLE: iteration 1
diagonal:  Solving for rho, Initial residual = 0, Final residual = 0, No Iterations 0
smoothSolver:  Solving for Ux, Initial residual = 0.0044493884, Final residual = 4.9028218e-06, No Iterations 2
smoothSolver:  Solving for Uy, Initial residual = 0.079292195, Final residual = 1.8198543e-07, No Iterations 4
smoothSolver:  Solving for e, Initial residual = 0.02169088, Final residual = 7.489142e-08, No Iterations 4
smoothSolver:  Solving for p, Initial residual = 0.083892282, Final residual = 0.0081254807, No Iterations 2
diagonal:  Solving for rho, Initial residual = 0, Final residual = 0, No Iterations 0
time step continuity errors : sum local = 7.7209658e-06, global = -1.9205566e-07, cumulative = -2.410669e-06
smoothSolver:  Solving for p, Initial residual = 0.0079590779, Final residual = 9.3735573e-06, No Iterations 6
diagonal:  Solving for rho, Initial residual = 0, Final residual = 0, No Iterations 0
time step continuity errors : sum local = 9.0355987e-09, global = 3.6622287e-11, cumulative = -2.4106324e-06
DILUPBiCGStab:  Solving for omega, Initial residual = 0.0034825215, Final residual = 2.1215935e-11, No Iterations 1
smoothSolver:  Solving for k, Initial residual = 0.02052996, Final residual = 1.3967926e-06, No Iterations 1
ExecutionTime = 5.82 s  ClockTime = 6 s

forceCoeffs forces write:
    Coefficient	Total	Pressure	Viscous	Internal
    Cd:	16.521721	16.462679	0.059042637	0
    Cd(f):	8.2609163	8.2313892	0.029527143	0
    Cd(r):	8.2608052	8.2312897	0.029515494	0
    Cl:	-0.00011114583	-9.9496989e-05	-1.1648843e-05	0
    Cl(f):	-5.5069031e-05	-4.9748476e-05	-5.3205543e-06	0
    Cl(r):	-5.6076801e-05	-4.9748512e-05	-6.3282884e-06	0
    CmPitch:	5.0388496e-07	1.7912867e-11	5.0386705e-07	0
    CmRoll:	5.5572916e-05	4.9748494e-05	5.8244213e-06	0
    CmYaw:	8.2608607	8.2313394	0.029521319	0
    Cs:	5.8618585e-19	5.9179676e-19	-5.6109024e-21	0
    Cs(f):	8.2608607	8.2313394	0.029521319	0
    Cs(r):	-8.2608607	-8.2313394	-0.029521319	0

    writing force and moment coefficient files.

Courant Number mean: 0.020271364 max: 0.26720042
Time = 0.06

PIMPLE: iteration 1
diagonal:  Solving for rho, Initial residual = 0, Final residual = 0, No Iterations 0
smoothSolver:  Solving for Ux, Initial residual = 0.0042825234, Final residual = 4.5225374e-06, No Iterations 2
smoothSolver:  Solving for Uy, Initial residual = 0.074179985, Final residual = 1.5393682e-07, No Iterations 4
smoothSolver:  Solving for e, Initial residual = 0.020992989, Final residual = 6.3319473e-08, No Iterations 4
smoothSolver:  Solving for p, Initial residual = 0.081067722, Final residual = 0.0075526882, No Iterations 2
diagonal:  Solving for rho, Initial residual = 0, Final residual = 0, No Iterations 0
time step continuity errors : sum local = 7.6226368e-06, global = -1.7467514e-07, cumulative = -2.5853075e-06
smoothSolver:  Solving for p, Initial residual = 0.0073734547, Final residual = 7.6648118e-06, No Iterations 6
diagonal:  Solving for rho, Initial residual = 0, Final residual = 0, No Iterations 0
time step continuity errors : sum local = 7.8366639e-09, global = -7.4973925e-11, cumulative = -2.5853825e-06
DILUPBiCGStab:  Solving for omega, Initial residual = 0.0034502714, Final residual = 1.9535495e-11, No Iterations 1
smoothSolver:  Solving for k, Initial residual = 0.017890494, Final residual = 1.2310176e-06, No Iterations 1
ExecutionTime = 6.11 s  ClockTime = 6 s

forceCoeffs forces write:
    Coefficient	Total	Pressure	Viscous	Internal
    Cd:	16.464426	16.405765	0.058661277	0
    Cd(f):	8.2324361	8.2030998	0.029336268	0
    Cd(r):	8.2319901	8.2026651	0.02932501	0
    Cl:	-0.00044590951	-0.00043465183	-1.125768e-05	0
    Cl(f):	-0.00022239684	-0.00021732591	-5.0709328e-06	0
    Cl(r):	-0.00022351267	-0.00021732592	-6.186747e-06	0
    CmPitch:	5.5791317e-07	6.0820597e-12	5.5790709e-07	0
    CmRoll:	0.00022295475	0.00021732591	5.6288399e-06	0
    CmYaw:	8.2322131	8.2028825	0.029330639	0
    Cs:	5.8629869e-19	5.9191311e-19	-5.6144187e-21	0
    Cs(f):	8.2322131	8.2028825	0.029330639	0
    Cs(r):	-8.2322131	-8.2028825	-0.029330639	0

    writing force and moment coefficient files.

Courant Number mean: 0.020219 max: 0.26709689
Time = 0.065

PIMPLE: iteration 1
diagonal:  Solving for rho, Initial residual = 0, Final residual = 0, No Iterations 0
smoothSolver:  Solving for Ux, Initial residual = 0.004143618, Final residual = 4.0929483e-06, No Iterations 2
smoothSolver:  Solving for Uy, Initial residual = 0.070264369, Final residual = 1.2488895e-07, No Iterations 4
smoothSolver:  Solving for e, Initial residual = 0.020360086, Final residual = 5.3124133e-08, No Iterations 4
smoothSolver:  Solving for p, Initial residual = 0.079044355, Final residual = 0.0069764677, No Iterations 2
diagonal:  Solving for rho, Initial residual = 0, Final residual = 0, No Iterations 0
time step continuity errors : sum local = 7.443517e-06, global = -1.6422248e-07, cumulative = -2.749605e-06
smoothSolver:  Solving for p, Initial residual = 0.0068688469, Final residual = 6.2952126e-06, No Iterations 6
diagonal:  Solving for rho, Initial residual = 0, Final residual = 0, No Iterations 0
time step continuity errors : sum local = 6.7867985e-09, global = -1.9949934e-10, cumulative = -2.7498045e-06
DILUPBiCGStab:  Solving for omega, Initial residual = 0.0034163708, Final residual = 1.7856349e-11, No Iterations 1
smoothSolver:  Solving for k, Initial residual = 0.015779453, Final residual = 1.1006234e-06, No Iterations 1
ExecutionTime = 6.39 s  ClockTime = 6 s

forceCoeffs forces write:
    Coefficient	Total	Pressure	Viscous	Internal
    Cd:	16.410071	16.351863	0.058207965	0
    Cd(f):	8.2052941	8.1761849	0.029109272	0
    Cd(r):	8.2047771	8.1756784	0.029098693	0
    Cl:	-0.00051708158	-0.00050650309	-1.0578497e-05	0
    Cl(f):	-0.00025794931	-0.00025325155	-4.6977606e-06	0
    Cl(r):	-0.00025913228	-0.00025325154	-5.8807367e-06	0
    CmPitch:	5.9148412e-07	-3.9438047e-12	5.9148806e-07	0
    CmRoll:	0.00025854079	0.00025325154	5.2892487e-06	0
    CmYaw:	8.2050356	8.1759316	0.029103983	0
    Cs:	5.8637749e-19	5.9199709e-19	-5.6196038e-21	0
    Cs(f):	8.2050356	8.1759316	0.029103983	0
    Cs(r):	-8.2050356	-8.1759316	-0.029103983	0

    writing force and moment coefficient files.

Courant Number mean: 0.020168 max: 0.26671977
Time = 0.07

PIMPLE: iteration 1
diagonal:  Solving for rho, Initial residual = 0, Final residual = 0, No Iterations 0
smoothSolver:  Solving for Ux, Initial residual = 0.0040258361, Final residual = 3.5642363e-06, No Iterations 2
smoothSolver:  Solving for Uy, Initial residual = 0.066722021, Final residual = 9.7665367e-08, No Iterations 4
smoothSolver:  Solving for e, Initial residual = 0.019910003, Final residual = 4.3128839e-08, No Iterations 4
smoothSolver:  Solving for p, Initial residual = 0.07713568, Final residual = 0.0065041439, No Iterations 2
diagonal:  Solving for rho, Initial residual = 0, Final residual = 0, No Iterations 0
time step continuity errors : sum local = 7.298044e-06, global = -1.4342174e-07, cumulative = -2.8932262e-06
smoothSolver:  Solving for p, Initial residual = 0.0064416408, Final residual = 5.2250424e-06, No Iterations 6
diagonal:  Solving for rho, Initial residual = 0, Final residual = 0, No Iterations 0
time step continuity errors : sum local = 5.9008754e-09, global = -2.8841406e-10, cumulative = -2.8935146e-06
DILUPBiCGStab:  Solving for omega, Initial residual = 0.003383291, Final residual = 1.6183117e-11, No Iterations 1
smoothSolver:  Solving for k, Initial residual = 0.014064609, Final residual = 9.9741596e-07, No Iterations 1
ExecutionTime = 6.68 s  ClockTime = 7 s

forceCoeffs forces write:
    Coefficient	Total	Pressure	Viscous	Internal
    Cd:	16.315486	16.257623	0.05786226	0
    Cd(f):	8.1578168	8.1288807	0.028936163	0
    Cd(r):	8.1576688	8.1287428	0.028926097	0
    Cl:	-0.00014796788	-0.00013790191	-1.0065968e-05	0
    Cl(f):	-7.3360966e-05	-6.8950962e-05	-4.4100039e-06	0
    Cl(r):	-7.4606911e-05	-6.8950947e-05	-5.6559642e-06	0
    CmPitch:	6.229724e-07	-7.7323568e-12	6.2298013e-07	0
    CmRoll:	7.3983939e-05	6.8950955e-05	5.0329841e-06	0
    CmYaw:	8.1577428	8.1288117	0.02893113	0
    Cs:	5.8642234e-19	5.9204921e-19	-5.626865e-21	0
    Cs(f):	8.1577428	8.1288117	0.02893113	0
    Cs(r):	-8.1577428	-8.1288117	-0.02893113	0

    writing force and moment coefficient files.

Courant Number mean: 0.020117808 max: 0.26558947
Time = 0.075

PIMPLE: iteration 1
diagonal:  Solving for rho, Initial residual = 0, Final residual = 0, No Iterations 0
smoothSolver:  Solving for Ux, Initial residual = 0.0039488282, Final residual = 3.2216179e-06, No Iterations 2
smoothSolver:  Solving for Uy, Initial residual = 0.063644813, Final residual = 7.544207e-08, No Iterations 4
smoothSolver:  Solving for e, Initial residual = 0.01953424, Final residual = 3.3554581e-08, No Iterations 4
smoothSolver:  Solving for p, Initial residual = 0.076344068, Final residual = 0.0061257612, No Iterations 2
diagonal:  Solving for rho, Initial residual = 0, Final residual = 0, No Iterations 0
time step continuity errors : sum local = 7.1816113e-06, global = -1.1589285e-07, cumulative = -3.0094075e-06
smoothSolver:  Solving for p, Initial residual = 0.0058301671, Final residual = 4.3056643e-06, No Iterations 6
diagonal:  Solving for rho, Initial residual = 0, Final residual = 0, No Iterations 0
time step continuity errors : sum local = 5.2613497e-09, global = -3.9483436e-10, cumulative = -3.0098023e-06
DILUPBiCGStab:  Solving for omega, Initial residual = 0.0033521232, Final residual = 1.5056868e-11, No Iterations 1
smoothSolver:  Solving for k, Initial residual = 0.012651972, Final residual = 9.0584531e-07, No Iterations 1
ExecutionTime = 6.96 s  ClockTime = 7 s

forceCoeffs forces write:
    Coefficient	Total	Pressure	Viscous	Internal
    Cd:	16.201673	16.144028	0.057645017	0
    Cd(f):	8.1006334	8.0718057	0.028827693	0
    Cd(r):	8.1010397	8.0722224	0.028817324	0
    Cl:	0.00040630777	0.00041667673	-1.0368967e-05	0
    Cl(f):	0.00020377244	0.00020833836	-4.5659189e-06	0
    Cl(r):	0.00020253532	0.00020833837	-5.8030478e-06	0
    CmPitch:	6.1856081e-07	-3.6416198e-12	6.1856446e-07	0
    CmRoll:	-0.00020315388	-0.00020833837	5.1844833e-06	0
    CmYaw:	8.1008365	8.072014	0.028822509	0
    Cs:	5.8629893e-19	5.9193246e-19	-5.6335254e-21	0
    Cs(f):	8.1008365	8.072014	0.028822509	0
    Cs(r):	-8.1008365	-8.072014	-0.028822509	0

    writing force and moment coefficient files.

Courant Number mean: 0.020068817 max: 0.26263767
Time = 0.08

PIMPLE: iteration 1
diagonal:  Solving for rho, Initial residual = 0, Final residual = 0, No Iterations 0
smoothSolver:  Solving for Ux, Initial residual = 0.0038754665, Final residual = 2.9429449e-06, No Iterations 2
smoothSolver:  Solving for Uy, Initial residual = 0.06065284, Final residual = 5.7842069e-08, No Iterations 4
smoothSolver:  Solving for e, Initial residual = 0.019090576, Final residual = 2.4733501e-08, No Iterations 4
smoothSolver:  Solving for p, Initial residual = 0.072879773, Final residual = 0.0055181621, No Iterations 2
diagonal:  Solving for rho, Initial residual = 0, Final residual = 0, No Iterations 0
time step continuity errors : sum local = 6.9809797e-06, global = -6.8176621e-08, cumulative = -3.0779789e-06
smoothSolver:  Solving for p, Initial residual = 0.0051704786, Final residual = 3.5759826e-06, No Iterations 6
diagonal:  Solving for rho, Initial residual = 0, Final residual = 0, No Iterations 0
time step continuity errors : sum local = 4.81188e-09, global = -4.511322e-10, cumulative = -3.0784301e-06
DILUPBiCGStab:  Solving for omega, Initial residual = 0.0033220928, Final residual = 1.3864412e-11, No Iterations 1
smoothSolver:  Solving for k, Initial residual = 0.011472196, Final residual = 8.2706588e-07, No Iterations 1
ExecutionTime = 7.25 s  ClockTime = 7 s

forceCoeffs forces write:
    Coefficient	Total	Pressure	Viscous	Internal
    Cd:	16.094372	16.036885	0.05748699	0
    Cd(f):	8.0468812	8.0181321	0.02874905	0
    Cd(r):	8.0474912	8.0187533	0.02873794	0
    Cl:	0.00061002167	0.0006211314	-1.110973e-05	0
    Cl(f):	0.00030561831	0.00031056571	-4.9473987e-06	0
    Cl(r):	0.00030440336	0.0003105657	-6.1623312e-06	0
    CmPitch:	6.0747269e-07	6.4062289e-12	6.0746628e-07	0
    CmRoll:	-0.00030501084	-0.0003105657	5.5548649e-06	0
    CmYaw:	8.0471862	8.0184427	0.028743495	0
    Cs:	5.8595028e-19	5.9158759e-19	-5.6373026e-21	0
    Cs(f):	8.0471862	8.0184427	0.028743495	0
    Cs(r):	-8.0471862	-8.0184427	-0.028743495	0

    writing force and moment coefficient files.

Courant Number mean: 0.020022065 max: 0.25578538
Time = 0.085

PIMPLE: iteration 1
diagonal:  Solving for rho, Initial residual = 0, Final residual = 0, No Iterations 0
smoothSolver:  Solving for Ux, Initial residual = 0.0038197636, Final residual = 2.4113022e-06, No Iterations 2
smoothSolver:  Solving for Uy, Initial residual = 0.057927853, Final residual = 4.0819846e-08, No Iterations 4
smoothSolver:  Solving for e, Initial residual = 0.018908885, Final residual = 1.9179185e-08, No Iterations 4
smoothSolver:  Solving for p, Initial residual = 0.067612114, Final residual = 0.004885591, No Iterations 2
diagonal:  Solving for rho, Initial residual = 0, Final residual = 0, No Iterations 0
time step continuity errors : sum local = 6.7898016e-06, global = 9.256782e-09, cumulative = -3.0691733e-06
smoothSolver:  Solving for p, Initial residual = 0.0046315615, Final residual = 9.7147483e-06, No Iterations 5
diagonal:  Solving for rho, Initial residual = 0, Final residual = 0, No Iterations 0
time step continuity errors : sum local = 1.4362088e-08, global = -7.8241333e-10, cumulative = -3.0699557e-06
DILUPBiCGStab:  Solving for omega, Initial residual = 0.0032921439, Final residual = 1.2214951e-11, No Iterations 1
smoothSolver:  Solving for k, Initial residual = 0.010475869, Final residual = 7.66644e-07, No Iterations 1
ExecutionTime = 7.54 s  ClockTime = 8 s

forceCoeffs forces write:
    Coefficient	Total	Pressure	Viscous	Internal
    Cd:	15.997571	15.940234	0.057337659	0
    Cd(f):	7.9985869	7.9699122	0.028674647	0
    Cd(r):	7.9989844	7.9703214	0.028663012	0
    Cl:	0.0003975324	0.00040916712	-1.1634726e-05	0
    Cl(f):	0.00019939064	0.00020458358	-5.1929343e-06	0
    Cl(r):	0.00019814175	0.00020458354	-6.4417915e-06	0
    CmPitch:	6.2444606e-07	1.7478333e-11	6.2442858e-07	0
    CmRoll:	-0.0001987662	-0.00020458356	5.8173629e-06	0
    CmYaw:	7.9987857	7.9701168	0.028668829	0
    Cs:	5.8553447e-19	5.9117364e-19	-5.6391765e-21	0
    Cs(f):	7.9987857	7.9701168	0.028668829	0
    Cs(r):	-7.9987857	-7.9701168	-0.028668829	0

    writing force and moment coefficient files.

Courant Number mean: 0.019977103 max: 0.2429973
Time = 0.09

PIMPLE: iteration 1
diagonal:  Solving for rho, Initial residual = 0, Final residual = 0, No Iterations 0
smoothSolver:  Solving for Ux, Initial residual = 0.0037879786, Final residual = 2.1988829e-06, No Iterations 2
smoothSolver:  Solving for Uy, Initial residual = 0.05561376, Final residual = 3.3283951e-08, No Iterations 4
smoothSolver:  Solving for e, Initial residual = 0.018741376, Final residual = 1.5385533e-08, No Iterations 4
smoothSolver:  Solving for p, Initial residual = 0.06402259, Final residual = 0.0043134864, No Iterations 2
diagonal:  Solving for rho, Initial residual = 0, Final residual = 0, No Iterations 0
time step continuity errors : sum local = 6.5749273e-06, global = 9.05522e-08, cumulative = -2.9794035e-06
smoothSolver:  Solving for p, Initial residual = 0.004116869, Final residual = 8.5245003e-06, No Iterations 5
diagonal:  Solving for rho, Initial residual = 0, Final residual = 0, No Iterations 0
time step continuity errors : sum local = 1.3792172e-08, global = -6.2612473e-10, cumulative = -2.9800296e-06
DILUPBiCGStab:  Solving for omega, Initial residual = 0.0032614991, Final residual = 1.1175937e-11, No Iterations 1
smoothSolver:  Solving for k, Initial residual = 0.0096224321, Final residual = 7.0301211e-07, No Iterations 1
ExecutionTime = 7.82 s  ClockTime = 8 s

forceCoeffs forces write:
    Coefficient	Total	Pressure	Viscous	Internal
    Cd:	15.90397	15.846776	0.05719421	0
    Cd(f):	7.95195	7.9233471	0.028602971	0
    Cd(r):	7.9520201	7.9234289	0.028591238	0
    Cl:	7.0059218e-05	8.1792635e-05	-1.1733417e-05	0
    Cl(f):	3.5687208e-05	4.0896341e-05	-5.2091325e-06	0
    Cl(r):	3.437201e-05	4.0896294e-05	-6.5242844e-06	0
    CmPitch:	6.5759921e-07	2.3302658e-11	6.5757591e-07	0
    CmRoll:	-3.5029609e-05	-4.0896317e-05	5.8667084e-06	0
    CmYaw:	7.9519851	7.923388	0.028597105	0
    Cs:	5.8527105e-19	5.9090967e-19	-5.6386191e-21	0
    Cs(f):	7.9519851	7.923388	0.028597105	0
    Cs(r):	-7.9519851	-7.923388	-0.028597105	0

    writing force and moment coefficient files.

Courant Number mean: 0.019935172 max: 0.23115722
Time = 0.095

PIMPLE: iteration 1
diagonal:  Solving for rho, Initial residual = 0, Final residual = 0, No Iterations 0
smoothSolver:  Solving for Ux, Initial residual = 0.0037585975, Final residual = 2.0108563e-06, No Iterations 2
smoothSolver:  Solving for Uy, Initial residual = 0.052949734, Final residual = 3.0253794e-08, No Iterations 4
smoothSolver:  Solving for e, Initial residual = 0.018677425, Final residual = 1.1331057e-08, No Iterations 4
smoothSolver:  Solving for p, Initial residual = 0.059778337, Final residual = 0.0037616945, No Iterations 2
diagonal:  Solving for rho, Initial residual = 0, Final residual = 0, No Iterations 0
time step continuity errors : sum local = 6.2636969e-06, global = 1.6460877e-07, cumulative = -2.8154209e-06
smoothSolver:  Solving for p, Initial residual = 0.0036475171, Final residual = 7.610995e-06, No Iterations 5
diagonal:  Solving for rho, Initial residual = 0, Final residual = 0, No Iterations 0
time step continuity errors : sum local = 1.3358332e-08, global = -3.0805749e-10, cumulative = -2.8157289e-06
DILUPBiCGStab:  Solving for omega, Initial residual = 0.0032318063, Final residual = 9.8694523e-12, No Iterations 1
smoothSolver:  Solving for k, Initial residual = 0.008888246, Final residual = 6.4875775e-07, No Iterations 1
ExecutionTime = 8.1 s  ClockTime = 8 s

forceCoeffs forces write:
    Coefficient	Total	Pressure	Viscous	Internal
    Cd:	15.807318	15.750246	0.057071611	0
    Cd(f):	7.9037176	7.8751761	0.028541536	0
    Cd(r):	7.9036002	7.8750702	0.028530074	0
    Cl:	-0.00011739529	-0.00010593299	-1.1462297e-05	0
    Cl(f):	-5.8017871e-05	-5.2966475e-05	-5.0513958e-06	0
    Cl(r):	-5.9377418e-05	-5.2966517e-05	-6.4109007e-06	0
    CmPitch:	6.7977332e-07	2.0849324e-11	6.7975247e-07	0
    CmRoll:	5.8697644e-05	5.2966496e-05	5.7311483e-06	0
    CmYaw:	7.9036589	7.8751231	0.028535805	0
    Cs:	5.8522592e-19	5.9086009e-19	-5.6341656e-21	0
    Cs(f):	7.9036589	7.8751231	0.028535805	0
    Cs(r):	-7.9036589	-7.8751231	-0.028535805	0

    writing force and moment coefficient files.

Courant Number mean: 0.019898238 max: 0.22079632
Time = 0.1

PIMPLE: iteration 1
diagonal:  Solving for rho, Initial residual = 0, Final residual = 0, No Iterations 0
smoothSolver:  Solving for Ux, Initial residual = 0.0037628226, Final residual = 1.7076873e-06, No Iterations 2
smoothSolver:  Solving for Uy, Initial residual = 0.051046531, Final residual = 2.7269045e-08, No Iterations 4
smoothSolver:  Solving for e, Initial residual = 0.01863073, Final residual = 9.3567334e-06, No Iterations 2
smoothSolver:  Solving for p, Initial residual = 0.056859138, Final residual = 0.0032333717, No Iterations 2
diagonal:  Solving for rho, Initial residual = 0, Final residual = 0, No Iterations 0
time step continuity errors : sum local = 5.8293171e-06, global = 1.9803243e-07, cumulative = -2.6176965e-06
smoothSolver:  Solving for p, Initial residual = 0.003220257, Final residual = 6.7794116e-06, No Iterations 5
diagonal:  Solving for rho, Initial residual = 0, Final residual = 0, No Iterations 0
time step continuity errors : sum local = 1.2713754e-08, global = 7.3999431e-11, cumulative = -2.6176225e-06
DILUPBiCGStab:  Solving for omega, Initial residual = 0.0032034177, Final residual = 9.0117224e-12, No Iterations 1
smoothSolver:  Solving for k, Initial residual = 0.0082512928, Final residual = 5.9685847e-07, No Iterations 1
ExecutionTime = 8.38 s  ClockTime = 8 s

forceCoeffs forces write:
    Coefficient	Total	Pressure	Viscous	Internal
    Cd:	15.701389	15.644416	0.056973542	0
    Cd(f):	7.8507154	7.8222232	0.028492234	0
    Cd(r):	7.8506739	7.8221926	0.028481308	0
    Cl:	-4.1502098e-05	-3.0575327e-05	-1.0926771e-05	0
    Cl(f):	-2.0070784e-05	-1.5287651e-05	-4.7831323e-06	0
    Cl(r):	-2.1431314e-05	-1.5287675e-05	-6.1436386e-06	0
    CmPitch:	6.802652e-07	1.2062503e-11	6.8025314e-07	0
    CmRoll:	2.0751049e-05	1.5287663e-05	5.4633854e-06	0
    CmYaw:	7.8506947	7.8222079	0.028486771	0
    Cs:	5.8529066e-19	5.9092043e-19	-5.6297623e-21	0
    Cs(f):	7.8506947	7.8222079	0.028486771	0
    Cs(r):	-7.8506947	-7.8222079	-0.028486771	0

    writing force and moment coefficient files.

Courant Number mean: 0.019864245 max: 0.21169632
Time = 0.105

PIMPLE: iteration 1
diagonal:  Solving for rho, Initial residual = 0, Final residual = 0, No Iterations 0
smoothSolver:  Solving for Ux, Initial residual = 0.0037702412, Final residual = 1.6835699e-06, No Iterations 2
smoothSolver:  Solving for Uy, Initial residual = 0.049015664, Final residual = 2.9126112e-08, No Iterations 4
smoothSolver:  Solving for e, Initial residual = 0.018588873, Final residual = 8.7193743e-06, No Iterations 2
smoothSolver:  Solving for p, Initial residual = 0.054768459, Final residual = 0.0027834045, No Iterations 2
diagonal:  Solving for rho, Initial residual = 0, Final residual = 0, No Iterations 0
time step continuity errors : sum local = 5.3496523e-06, global = 1.3762548e-07, cumulative = -2.479997e-06
smoothSolver:  Solving for p, Initial residual = 0.0028543425, Final residual = 5.8770363e-06, No Iterations 5
diagonal:  Solving for rho, Initial residual = 0, Final residual = 0, No Iterations 0
time step continuity errors : sum local = 1.1538619e-08, global = 1.3539568e-10, cumulative = -2.4798616e-06
DILUPBiCGStab:  Solving for omega, Initial residual = 0.0031756735, Final residual = 8.2726623e-12, No Iterations 1
smoothSolver:  Solving for k, Initial residual = 0.0076959194, Final residual = 5.538451e-07, No Iterations 1
ExecutionTime = 8.66 s  ClockTime = 9 s

forceCoeffs forces write:
    Coefficient	Total	Pressure	Viscous	Internal
    Cd:	15.582065	15.525163	0.05690212	0
    Cd(f):	7.7909821	7.7625259	0.028456219	0
    Cd(r):	7.7910832	7.7626373	0.028445901	0
    Cl:	0.00010106376	0.00011138252	-1.0318755e-05	0
    Cl(f):	5.1197206e-05	5.5691262e-05	-4.4940565e-06	0
    Cl(r):	4.9866559e-05	5.5691257e-05	-5.8246982e-06	0
    CmPitch:	6.6532351e-07	2.6593359e-12	6.6532085e-07	0
    CmRoll:	-5.0531882e-05	-5.5691259e-05	5.1593773e-06	0
    CmYaw:	7.7910327	7.7625816	0.02845106	0
    Cs:	5.8530016e-19	5.9092719e-19	-5.6270247e-21	0
    Cs(f):	7.7910327	7.7625816	0.02845106	0
    Cs(r):	-7.7910327	-7.7625816	-0.02845106	0

    writing force and moment coefficient files.

Courant Number mean: 0.019834566 max: 0.2034711
Time = 0.11

PIMPLE: iteration 1
diagonal:  Solving for rho, Initial residual = 0, Final residual = 0, No Iterations 0
smoothSolver:  Solving for Ux, Initial residual = 0.003790725, Final residual = 1.5269947e-06, No Iterations 2
smoothSolver:  Solving for Uy, Initial residual = 0.047233671, Final residual = 2.7751898e-08, No Iterations 4
smoothSolver:  Solving for e, Initial residual = 0.01854717, Final residual = 8.4052686e-06, No Iterations 2
smoothSolver:  Solving for p, Initial residual = 0.053915361, Final residual = 0.0023685729, No Iterations 2
diagonal:  Solving for rho, Initial residual = 0, Final residual = 0, No Iterations 0
time step continuity errors : sum local = 4.7515185e-06, global = -1.8466018e-09, cumulative = -2.4817082e-06
smoothSolver:  Solving for p, Initial residual = 0.0025040655, Final residual = 4.8306909e-06, No Iterations 5
diagonal:  Solving for rho, Initial residual = 0, Final residual = 0, No Iterations 0
time step continuity errors : sum local = 9.7089507e-09, global = -1.0123194e-10, cumulative = -2.4818094e-06
DILUPBiCGStab:  Solving for omega, Initial residual = 0.0031487402, Final residual = 7.8610409e-12, No Iterations 1
smoothSolver:  Solving for k, Initial residual = 0.0072067962, Final residual = 5.1998681e-07, No Iterations 1
ExecutionTime = 8.93 s  ClockTime = 9 s

forceCoeffs forces write:
    Coefficient	Total	Pressure	Viscous	Internal
    Cd:	15.455026	15.398164	0.056862211	0
    Cd(f):	7.7275083	7.6990723	0.028435952	0
    Cd(r):	7.7275178	7.6990915	0.028426259	0
    Cl:	9.4993914e-06	1.919208e-05	-9.6926886e-06	0
    Cl(f):	5.4106637e-06	9.596038e-06	-4.1853742e-06	0
    Cl(r):	4.0887276e-06	9.596042e-06	-5.5073143e-06	0
    CmPitch:	6.6096803e-07	-2.0170426e-12	6.6097005e-07	0
    CmRoll:	-4.7496957e-06	-9.59604e-06	4.8463443e-06	0
    CmYaw:	7.727513	7.6990819	0.028431106	0
    Cs:	5.8513376e-19	5.9076205e-19	-5.6282885e-21	0
    Cs(f):	7.727513	7.6990819	0.028431106	0
    Cs(r):	-7.727513	-7.6990819	-0.028431106	0

    writing force and moment coefficient files.

Courant Number mean: 0.019807566 max: 0.20817347
Time = 0.115

PIMPLE: iteration 1
diagonal:  Solving for rho, Initial residual = 0, Final residual = 0, No Iterations 0
smoothSolver:  Solving for Ux, Initial residual = 0.0038236644, Final residual = 1.5186215e-06, No Iterations 2
smoothSolver:  Solving for Uy, Initial residual = 0.045864378, Final residual = 2.8156587e-08, No Iterations 4
smoothSolver:  Solving for e, Initial residual = 0.018433265, Final residual = 8.2171981e-06, No Iterations 2
smoothSolver:  Solving for p, Initial residual = 0.054214131, Final residual = 0.0020971016, No Iterations 2
diagonal:  Solving for rho, Initial residual = 0, Final residual = 0, No Iterations 0
time step continuity errors : sum local = 4.2931642e-06, global = -1.9396391e-07, cumulative = -2.6757733e-06
smoothSolver:  Solving for p, Initial residual = 0.0022795519, Final residual = 4.1683045e-06, No Iterations 5
diagonal:  Solving for rho, Initial residual = 0, Final residual = 0, No Iterations 0
time step continuity errors : sum local = 8.407284e-09, global = -5.4562564e-10, cumulative = -2.676319e-06
DILUPBiCGStab:  Solving for omega, Initial residual = 0.0031217848, Final residual = 7.4586025e-12, No Iterations 1
smoothSolver:  Solving for k, Initial residual = 0.0067739451, Final residual = 4.8912776e-07, No Iterations 1
ExecutionTime = 9.21 s  ClockTime = 9 s

forceCoeffs forces write:
    Coefficient	Total	Pressure	Viscous	Internal
    Cd:	15.334776	15.27793	0.05684615	0
    Cd(f):	7.6674588	7.6390309	0.028427874	0
    Cd(r):	7.667317	7.6388987	0.028418276	0
    Cl:	-0.0001418297	-0.00013223192	-9.597786e-06	0
    Cl(f):	-7.0226959e-05	-6.6115958e-05	-4.1110013e-06	0
    Cl(r):	-7.1602743e-05	-6.6115958e-05	-5.4867847e-06	0
    CmPitch:	6.878916e-07	-1.4826909e-13	6.8789175e-07	0
    CmRoll:	7.0914851e-05	6.6115958e-05	4.798893e-06	0
    CmYaw:	7.6673879	7.6389648	0.028423075	0
    Cs:	5.8483056e-19	5.9046304e-19	-5.6324838e-21	0
    Cs(f):	7.6673879	7.6389648	0.028423075	0
    Cs(r):	-7.6673879	-7.6389648	-0.028423075	0

    writing force and moment coefficient files.

Courant Number mean: 0.019780806 max: 0.2129646
Time = 0.12

PIMPLE: iteration 1
diagonal:  Solving for rho, Initial residual = 0, Final residual = 0, No Iterations 0
smoothSolver:  Solving for Ux, Initial residual = 0.0038557677, Final residual = 1.5081346e-06, No Iterations 2
smoothSolver:  Solving for Uy, Initial residual = 0.044408552, Final residual = 2.7903238e-08, No Iterations 4
smoothSolver:  Solving for e, Initial residual = 0.018193704, Final residual = 8.3393763e-06, No Iterations 2
smoothSolver:  Solving for p, Initial residual = 0.055860926, Final residual = 0.0021084283, No Iterations 2
diagonal:  Solving for rho, Initial residual = 0, Final residual = 0, No Iterations 0
time step continuity errors : sum local = 4.3189126e-06, global = -3.4833877e-07, cumulative = -3.0246577e-06
smoothSolver:  Solving for p, Initial residual = 0.0023717156, Final residual = 4.3911865e-06, No Iterations 5
diagonal:  Solving for rho, Initial residual = 0, Final residual = 0, No Iterations 0
time step continuity errors : sum local = 8.7741036e-09, global = -9.7074163e-10, cumulative = -3.0256285e-06
DILUPBiCGStab:  Solving for omega, Initial residual = 0.003094237, Final residual = 6.9177823e-12, No Iterations 1
smoothSolver:  Solving for k, Initial residual = 0.0063848784, Final residual = 4.6061933e-07, No Iterations 1
ExecutionTime = 9.49 s  ClockTime = 10 s

forceCoeffs forces write:
    Coefficient	Total	Pressure	Viscous	Internal
    Cd:	15.229382	15.172547	0.056835263	0
    Cd(f):	7.6148478	7.5864252	0.02842258	0
    Cd(r):	7.614534	7.5861213	0.028412683	0
    Cl:	-0.00031373102	-0.000303834	-9.8970187e-06	0
    Cl(f):	-0.00015614536	-0.00015191699	-4.2283641e-06	0
    Cl(r):	-0.00015758566	-0.00015191701	-5.6686546e-06	0
    CmPitch:	7.2015154e-07	6.2625057e-12	7.2014528e-07	0
    CmRoll:	0.00015686551	0.000151917	4.9485094e-06	0
    CmYaw:	7.6146909	7.5862733	0.028417632	0
    Cs:	5.84533e-19	5.9016766e-19	-5.6346576e-21	0
    Cs(f):	7.6146909	7.5862733	0.028417632	0
    Cs(r):	-7.6146909	-7.5862733	-0.028417632	0

    writing force and moment coefficient files.

Courant Number mean: 0.019756088 max: 0.2161484
Time = 0.125

PIMPLE: iteration 1
diagonal:  Solving for rho, Initial residual = 0, Final residual = 0, No Iterations 0
smoothSolver:  Solving for Ux, Initial residual = 0.0038575381, Final residual = 1.4840697e-06, No Iterations 2
smoothSolver:  Solving for Uy, Initial residual = 0.043091311, Final residual = 2.6928825e-08, No Iterations 4
smoothSolver:  Solving for e, Initial residual = 0.017793627, Final residual = 7.7599869e-06, No Iterations 2
smoothSolver:  Solving for p, Initial residual = 0.057511207, Final residual = 0.0020975406, No Iterations 2
diagonal:  Solving for rho, Initial residual = 0, Final residual = 0, No Iterations 0
time step continuity errors : sum local = 4.2481826e-06, global = -3.72332e-07, cumulative = -3.3979605e-06
smoothSolver:  Solving for p, Initial residual = 0.0023816949, Final residual = 5.0478488e-06, No Iterations 5
diagonal:  Solving for rho, Initial residual = 0, Final residual = 0, No Iterations 0
time step continuity errors : sum local = 1.005228e-08, global = -1.2220778e-09, cumulative = -3.3991826e-06
DILUPBiCGStab:  Solving for omega, Initial residual = 0.0030667977, Final residual = 6.6271946e-12, No Iterations 1
smoothSolver:  Solving for k, Initial residual = 0.0060366311, Final residual = 4.3469949e-07, No Iterations 1
ExecutionTime = 9.76 s  ClockTime = 10 s

forceCoeffs forces write:
    Coefficient	Total	Pressure	Viscous	Internal
    Cd:	15.134889	15.078066	0.056822956	0
    Cd(f):	7.5675814	7.5391649	0.028416471	0
    Cd(r):	7.5673075	7.538901	0.028406485	0
    Cl:	-0.00027389148	-0.00026390542	-9.9860594e-06	0
    Cl(f):	-0.00013619062	-0.0001319527	-4.2379225e-06	0
    Cl(r):	-0.00013770086	-0.00013195272	-5.7481369e-06	0
    CmPitch:	7.5512091e-07	1.3699186e-11	7.5510721e-07	0
    CmRoll:	0.00013694574	0.00013195271	4.9930297e-06	0
    CmYaw:	7.5674444	7.5390329	0.028411478	0
    Cs:	5.8429998e-19	5.8993579e-19	-5.6358062e-21	0
    Cs(f):	7.5674444	7.5390329	0.028411478	0
    Cs(r):	-7.5674444	-7.5390329	-0.028411478	0

    writing force and moment coefficient files.

Courant Number mean: 0.019733092 max: 0.21421417
Time = 0.13

PIMPLE: iteration 1
diagonal:  Solving for rho, Initial residual = 0, Final residual = 0, No Iterations 0
smoothSolver:  Solving for Ux, Initial residual = 0.0039162779, Final residual = 1.5021667e-06, No Iterations 2
smoothSolver:  Solving for Uy, Initial residual = 0.042146433, Final residual = 2.6249919e-08, No Iterations 4
smoothSolver:  Solving for e, Initial residual = 0.017468504, Final residual = 7.4785768e-06, No Iterations 2
smoothSolver:  Solving for p, Initial residual = 0.058473483, Final residual = 0.0019001953, No Iterations 2
diagonal:  Solving for rho, Initial residual = 0, Final residual = 0, No Iterations 0
time step continuity errors : sum local = 3.8776448e-06, global = -3.098197e-07, cumulative = -3.7090023e-06
smoothSolver:  Solving for p, Initial residual = 0.0020359383, Final residual = 4.7197884e-06, No Iterations 5
diagonal:  Solving for rho, Initial residual = 0, Final residual = 0, No Iterations 0
time step continuity errors : sum local = 1.0229667e-08, global = -1.2518767e-09, cumulative = -3.7102541e-06
DILUPBiCGStab:  Solving for omega, Initial residual = 0.0030401342, Final residual = 6.0945046e-12, No Iterations 1
smoothSolver:  Solving for k, Initial residual = 0.0057234699, Final residual = 4.1625879e-07, No Iterations 1
ExecutionTime = 10.03 s  ClockTime = 10 s

forceCoeffs forces write:
    Coefficient	Total	Pressure	Viscous	Internal
    Cd:	15.043814	14.986999	0.056814613	0
    Cd(f):	7.5218633	7.4934512	0.028412129	0
    Cd(r):	7.5219507	7.4935482	0.028402484	0
    Cl:	8.7416539e-05	9.7062217e-05	-9.6456783e-06	0
    Cl(f):	4.4466678e-05	4.8531127e-05	-4.0644491e-06	0
    Cl(r):	4.2949861e-05	4.853109e-05	-5.5812291e-06	0
    CmPitch:	7.5840856e-07	1.8558516e-11	7.5839e-07	0
    CmRoll:	-4.3708269e-05	-4.8531108e-05	4.8228391e-06	0
    CmYaw:	7.521907	7.4934997	0.028407307	0
    Cs:	5.8411788e-19	5.8975218e-19	-5.6342968e-21	0
    Cs(f):	7.521907	7.4934997	0.028407307	0
    Cs(r):	-7.521907	-7.4934997	-0.028407307	0

    writing force and moment coefficient files.

Courant Number mean: 0.019712359 max: 0.21005784
Time = 0.135

PIMPLE: iteration 1
diagonal:  Solving for rho, Initial residual = 0, Final residual = 0, No Iterations 0
smoothSolver:  Solving for Ux, Initial residual = 0.0039475056, Final residual = 1.4695719e-06, No Iterations 2
smoothSolver:  Solving for Uy, Initial residual = 0.041253138, Final residual = 2.6350051e-08, No Iterations 4
smoothSolver:  Solving for e, Initial residual = 0.017124878, Final residual = 7.2327504e-06, No Iterations 2
smoothSolver:  Solving for p, Initial residual = 0.054817691, Final residual = 0.0015101982, No Iterations 2
diagonal:  Solving for rho, Initial residual = 0, Final residual = 0, No Iterations 0
time step continuity errors : sum local = 3.3454696e-06, global = -2.0731217e-07, cumulative = -3.9175663e-06
smoothSolver:  Solving for p, Initial residual = 0.0017117251, Final residual = 4.0943301e-06, No Iterations 5
diagonal:  Solving for rho, Initial residual = 0, Final residual = 0, No Iterations 0
time step continuity errors : sum local = 9.5604202e-09, global = -9.1104103e-10, cumulative = -3.9184774e-06
DILUPBiCGStab:  Solving for omega, Initial residual = 0.0030152199, Final residual = 6.170497e-12, No Iterations 1
smoothSolver:  Solving for k, Initial residual = 0.0054425694, Final residual = 3.9016218e-07, No Iterations 1
ExecutionTime = 10.31 s  ClockTime = 10 s

forceCoeffs forces write:
    Coefficient	Total	Pressure	Viscous	Internal
    Cd:	14.952846	14.89603	0.056816596	0
    Cd(f):	7.4761254	7.4477124	0.028413018	0
    Cd(r):	7.4767211	7.4483175	0.028403577	0
    Cl:	0.00059564865	0.0006050896	-9.4409506e-06	0
    Cl(f):	0.00029856251	0.00030254482	-3.9823139e-06	0
    Cl(r):	0.00029708614	0.00030254478	-5.4586367e-06	0
    CmPitch:	7.3818049e-07	1.9129095e-11	7.3816137e-07	0
    CmRoll:	-0.00029782433	-0.0003025448	4.7204753e-06	0
    CmYaw:	7.4764232	7.4480149	0.028408298	0
    Cs:	5.8398207e-19	5.8961134e-19	-5.6292726e-21	0
    Cs(f):	7.4764232	7.4480149	0.028408298	0
    Cs(r):	-7.4764232	-7.4480149	-0.028408298	0

    writing force and moment coefficient files.

Courant Number mean: 0.019690703 max: 0.20615239
Time = 0.14

PIMPLE: iteration 1
diagonal:  Solving for rho, Initial residual = 0, Final residual = 0, No Iterations 0
smoothSolver:  Solving for Ux, Initial residual = 0.0039714778, Final residual = 1.5113674e-06, No Iterations 2
smoothSolver:  Solving for Uy, Initial residual = 0.040312737, Final residual = 2.5765816e-08, No Iterations 4
smoothSolver:  Solving for e, Initial residual = 0.016901744, Final residual = 6.8653073e-06, No Iterations 2
smoothSolver:  Solving for p, Initial residual = 0.052935901, Final residual = 0.0012857364, No Iterations 2
diagonal:  Solving for rho, Initial residual = 0, Final residual = 0, No Iterations 0
time step continuity errors : sum local = 3.060373e-06, global = -1.4614874e-07, cumulative = -4.0646261e-06
smoothSolver:  Solving for p, Initial residual = 0.001536678, Final residual = 9.7751123e-06, No Iterations 4
diagonal:  Solving for rho, Initial residual = 0, Final residual = 0, No Iterations 0
time step continuity errors : sum local = 2.4400366e-08, global = -1.1129541e-09, cumulative = -4.065739e-06
DILUPBiCGStab:  Solving for omega, Initial residual = 0.0029912514, Final residual = 6.3654581e-12, No Iterations 1
smoothSolver:  Solving for k, Initial residual = 0.0051879115, Final residual = 3.7120897e-07, No Iterations 1
ExecutionTime = 10.58 s  ClockTime = 11 s

forceCoeffs forces write:
    Coefficient	Total	Pressure	Viscous	Internal
    Cd:	14.85971	14.802881	0.056829071	0
    Cd(f):	7.4294293	7.40101	0.028419321	0
    Cd(r):	7.4302806	7.4018709	0.02840975	0
    Cl:	0.00085135948	0.00086092995	-9.5704706e-06	0
    Cl(f):	0.00042639691	0.00043046499	-4.0680818e-06	0
    Cl(r):	0.00042496257	0.00043046496	-5.5023887e-06	0
    CmPitch:	7.1716864e-07	1.5194215e-11	7.1715344e-07	0
    CmRoll:	-0.00042567974	-0.00043046497	4.7852353e-06	0
    CmYaw:	7.429855	7.4014404	0.028414535	0
    Cs:	5.839215e-19	5.8954383e-19	-5.6223321e-21	0
    Cs(f):	7.429855	7.4014404	0.028414535	0
    Cs(r):	-7.429855	-7.4014404	-0.028414535	0

    writing force and moment coefficient files.

Courant Number mean: 0.019669099 max: 0.20307835
Time = 0.145

PIMPLE: iteration 1
diagonal:  Solving for rho, Initial residual = 0, Final residual = 0, No Iterations 0
smoothSolver:  Solving for Ux, Initial residual = 0.0039389573, Final residual = 1.4536304e-06, No Iterations 2
smoothSolver:  Solving for Uy, Initial residual = 0.038969086, Final residual = 2.5329943e-08, No Iterations 4
smoothSolver:  Solving for e, Initial residual = 0.016820472, Final residual = 6.9176759e-06, No Iterations 2
smoothSolver:  Solving for p, Initial residual = 0.050354715, Final residual = 0.0012437746, No Iterations 2
diagonal:  Solving for rho, Initial residual = 0, Final residual = 0, No Iterations 0
time step continuity errors : sum local = 3.1585911e-06, global = -1.5870834e-07, cumulative = -4.2244474e-06
smoothSolver:  Solving for p, Initial residual = 0.0015112539, Final residual = 3.9352309e-06, No Iterations 5
diagonal:  Solving for rho, Initial residual = 0, Final residual = 0, No Iterations 0
time step continuity errors : sum local = 1.0455846e-08, global = 7.6541425e-11, cumulative = -4.2243708e-06
DILUPBiCGStab:  Solving for omega, Initial residual = 0.0029670218, Final residual = 6.5098706e-12, No Iterations 1
smoothSolver:  Solving for k, Initial residual = 0.0049539211, Final residual = 3.5506679e-07, No Iterations 1
ExecutionTime = 10.87 s  ClockTime = 11 s

forceCoeffs forces write:
    Coefficient	Total	Pressure	Viscous	Internal
    Cd:	14.759523	14.702672	0.056851745	0
    Cd(f):	7.3793992	7.3509684	0.0284308	0
    Cd(r):	7.3801242	7.3517032	0.028420945	0
    Cl:	0.00072503239	0.00073488755	-9.8551626e-06	0
    Cl(f):	0.00036324853	0.00036744379	-4.1952584e-06	0
    Cl(r):	0.00036178386	0.00036744377	-5.6599042e-06	0
    CmPitch:	7.3233162e-07	8.7680775e-12	7.3232286e-07	0
    CmRoll:	-0.0003625162	-0.00036744378	4.9275813e-06	0
    CmYaw:	7.3797617	7.3513358	0.028425873	0
    Cs:	5.839581e-19	5.8957266e-19	-5.6145588e-21	0
    Cs(f):	7.3797617	7.3513358	0.028425873	0
    Cs(r):	-7.3797617	-7.3513358	-0.028425873	0

    writing force and moment coefficient files.

Courant Number mean: 0.01964802 max: 0.20213336
Time = 0.15

PIMPLE: iteration 1
diagonal:  Solving for rho, Initial residual = 0, Final residual = 0, No Iterations 0
smoothSolver:  Solving for Ux, Initial residual = 0.0039543914, Final residual = 1.4553155e-06, No Iterations 2
smoothSolver:  Solving for Uy, Initial residual = 0.038230133, Final residual = 2.4838828e-08, No Iterations 4
smoothSolver:  Solving for e, Initial residual = 0.016486601, Final residual = 6.5998004e-06, No Iterations 2
smoothSolver:  Solving for p, Initial residual = 0.047834108, Final residual = 0.0011060067, No Iterations 2
diagonal:  Solving for rho, Initial residual = 0, Final residual = 0, No Iterations 0
time step continuity errors : sum local = 2.9866784e-06, global = -1.7186445e-07, cumulative = -4.3962353e-06
smoothSolver:  Solving for p, Initial residual = 0.0013875333, Final residual = 4.2685626e-06, No Iterations 5
diagonal:  Solving for rho, Initial residual = 0, Final residual = 0, No Iterations 0
time step continuity errors : sum local = 1.2055859e-08, global = 4.1778144e-10, cumulative = -4.3958175e-06
DILUPBiCGStab:  Solving for omega, Initial residual = 0.0029420256, Final residual = 6.6729848e-12, No Iterations 1
smoothSolver:  Solving for k, Initial residual = 0.0047381231, Final residual = 3.3761745e-07, No Iterations 1
ExecutionTime = 11.15 s  ClockTime = 11 s

forceCoeffs forces write:
    Coefficient	Total	Pressure	Viscous	Internal
    Cd:	14.649873	14.592986	0.056887553	0
    Cd(f):	7.3247316	7.2962829	0.02844873	0
    Cd(r):	7.3251417	7.2967028	0.028438823	0
    Cl:	0.00041002015	0.00041992765	-9.9075072e-06	0
    Cl(f):	0.00020579033	0.00020996383	-4.1734987e-06	0
    Cl(r):	0.00020422981	0.00020996382	-5.7340085e-06	0
    CmPitch:	7.8025844e-07	3.570315e-12	7.8025487e-07	0
    CmRoll:	-0.00020501007	-0.00020996383	4.9537536e-06	0
    CmYaw:	7.3249366	7.2964929	0.028443777	0
    Cs:	5.8407013e-19	5.8967654e-19	-5.6064072e-21	0
    Cs(f):	7.3249366	7.2964929	0.028443777	0
    Cs(r):	-7.3249366	-7.2964929	-0.028443777	0

    writing force and moment coefficient files.

Courant Number mean: 0.019629985 max: 0.20591815
Time = 0.155

PIMPLE: iteration 1
diagonal:  Solving for rho, Initial residual = 0, Final residual = 0, No Iterations 0
smoothSolver:  Solving for Ux, Initial residual = 0.0040035729, Final residual = 1.455711e-06, No Iterations 2
smoothSolver:  Solving for Uy, Initial residual = 0.037599822, Final residual = 2.4966059e-08, No Iterations 4
smoothSolver:  Solving for e, Initial residual = 0.01613644, Final residual = 6.4485461e-06, No Iterations 2
smoothSolver:  Solving for p, Initial residual = 0.045898954, Final residual = 0.00094546957, No Iterations 2
diagonal:  Solving for rho, Initial residual = 0, Final residual = 0, No Iterations 0
time step continuity errors : sum local = 2.7114246e-06, global = -1.6772615e-07, cumulative = -4.5635437e-06
smoothSolver:  Solving for p, Initial residual = 0.0012366016, Final residual = 4.3878504e-06, No Iterations 5
diagonal:  Solving for rho, Initial residual = 0, Final residual = 0, No Iterations 0
time step continuity errors : sum local = 1.3158719e-08, global = 7.7633944e-10, cumulative = -4.5627673e-06
DILUPBiCGStab:  Solving for omega, Initial residual = 0.002917585, Final residual = 6.7907329e-12, No Iterations 1
smoothSolver:  Solving for k, Initial residual = 0.0045415819, Final residual = 3.2558915e-07, No Iterations 1
ExecutionTime = 11.43 s  ClockTime = 12 s

forceCoeffs forces write:
    Coefficient	Total	Pressure	Viscous	Internal
    Cd:	14.535046	14.478115	0.056931078	0
    Cd(f):	7.2673417	7.2388713	0.02847036	0
    Cd(r):	7.267704	7.2392433	0.028460717	0
    Cl:	0.0003623339	0.00037197721	-9.6433016e-06	0
    Cl(f):	0.00018200337	0.00018598861	-3.9852362e-06	0
    Cl(r):	0.00018033054	0.0001859886	-5.6580654e-06	0
    CmPitch:	8.364167e-07	2.1327674e-12	8.3641457e-07	0
    CmRoll:	-0.00018116695	-0.0001859886	4.8216508e-06	0
    CmYaw:	7.2675228	7.2390573	0.028465539	0
    Cs:	5.8418818e-19	5.8978604e-19	-5.5978612e-21	0
    Cs(f):	7.2675228	7.2390573	0.028465539	0
    Cs(r):	-7.2675228	-7.2390573	-0.028465539	0

    writing force and moment coefficient files.

Courant Number mean: 0.019616146 max: 0.21249843
Time = 0.16

PIMPLE: iteration 1
diagonal:  Solving for rho, Initial residual = 0, Final residual = 0, No Iterations 0
smoothSolver:  Solving for Ux, Initial residual = 0.0039994554, Final residual = 1.4625262e-06, No Iterations 2
smoothSolver:  Solving for Uy, Initial residual = 0.036671879, Final residual = 2.4636169e-08, No Iterations 4
smoothSolver:  Solving for e, Initial residual = 0.015984025, Final residual = 6.3167048e-06, No Iterations 2
smoothSolver:  Solving for p, Initial residual = 0.044407537, Final residual = 0.00086053784, No Iterations 2
diagonal:  Solving for rho, Initial residual = 0, Final residual = 0, No Iterations 0
time step continuity errors : sum local = 2.6176619e-06, global = -1.6247346e-07, cumulative = -4.7252408e-06
smoothSolver:  Solving for p, Initial residual = 0.0011639764, Final residual = 4.5858343e-06, No Iterations 5
diagonal:  Solving for rho, Initial residual = 0, Final residual = 0, No Iterations 0
time step continuity errors : sum local = 1.4573675e-08, global = 1.1396159e-09, cumulative = -4.7241012e-06
DILUPBiCGStab:  Solving for omega, Initial residual = 0.002893815, Final residual = 6.8634743e-12, No Iterations 1
smoothSolver:  Solving for k, Initial residual = 0.004362457, Final residual = 3.1311575e-07, No Iterations 1
ExecutionTime = 11.71 s  ClockTime = 12 s

forceCoeffs forces write:
    Coefficient	Total	Pressure	Viscous	Internal
    Cd:	14.421734	14.364761	0.056973441	0
    Cd(f):	7.2103928	7.1819015	0.028491298	0
    Cd(r):	7.2113413	7.1828592	0.028482143	0
    Cl:	0.0009485225	0.00095767766	-9.1551649e-06	0
    Cl(f):	0.00047511557	0.00047883884	-3.7232614e-06	0
    Cl(r):	0.00047340692	0.00047883883	-5.4319035e-06	0
    CmPitch:	8.5432578e-07	4.717147e-12	8.5432106e-07	0
    CmRoll:	-0.00047426125	-0.00047883883	4.5775824e-06	0
    CmYaw:	7.2108671	7.1823804	0.028486721	0
    Cs:	5.8418703e-19	5.8977557e-19	-5.5885357e-21	0
    Cs(f):	7.2108671	7.1823804	0.028486721	0
    Cs(r):	-7.2108671	-7.1823804	-0.028486721	0

    writing force and moment coefficient files.

Courant Number mean: 0.019603794 max: 0.21599588
Time = 0.165

PIMPLE: iteration 1
diagonal:  Solving for rho, Initial residual = 0, Final residual = 0, No Iterations 0
smoothSolver:  Solving for Ux, Initial residual = 0.0039782241, Final residual = 1.4697678e-06, No Iterations 2
smoothSolver:  Solving for Uy, Initial residual = 0.035520823, Final residual = 2.4524103e-08, No Iterations 4
smoothSolver:  Solving for e, Initial residual = 0.015798621, Final residual = 6.2783319e-06, No Iterations 2
smoothSolver:  Solving for p, Initial residual = 0.042569662, Final residual = 0.00083656701, No Iterations 2
diagonal:  Solving for rho, Initial residual = 0, Final residual = 0, No Iterations 0
time step continuity errors : sum local = 2.6941467e-06, global = -1.4963247e-07, cumulative = -4.8737336e-06
smoothSolver:  Solving for p, Initial residual = 0.0011462387, Final residual = 5.0581158e-06, No Iterations 5
diagonal:  Solving for rho, Initial residual = 0, Final residual = 0, No Iterations 0
time step continuity errors : sum local = 1.6988022e-08, global = 1.5616792e-09, cumulative = -4.872172e-06
DILUPBiCGStab:  Solving for omega, Initial residual = 0.0028708827, Final residual = 6.9621411e-12, No Iterations 1
smoothSolver:  Solving for k, Initial residual = 0.0041966073, Final residual = 2.9959728e-07, No Iterations 1
ExecutionTime = 11.99 s  ClockTime = 12 s

forceCoeffs forces write:
    Coefficient	Total	Pressure	Viscous	Internal
    Cd:	14.315309	14.258297	0.057012338	0
    Cd(f):	7.1564762	7.1279656	0.028510586	0
    Cd(r):	7.1588328	7.130331	0.028501752	0
    Cl:	0.0023565908	0.0023654253	-8.8344594e-06	0
    Cl(f):	0.0011791082	0.0011827126	-3.6044726e-06	0
    Cl(r):	0.0011774826	0.0011827126	-5.2299868e-06	0
    CmPitch:	8.127662e-07	9.0642234e-12	8.1275713e-07	0
    CmRoll:	-0.0011782954	-0.0011827126	4.4172297e-06	0
    CmYaw:	7.1576545	7.1291483	0.028506169	0
    Cs:	5.8398765e-19	5.8957137e-19	-5.5837208e-21	0
    Cs(f):	7.1576545	7.1291483	0.028506169	0
    Cs(r):	-7.1576545	-7.1291483	-0.028506169	0

    writing force and moment coefficient files.

Courant Number mean: 0.019592728 max: 0.21671585
Time = 0.17

PIMPLE: iteration 1
diagonal:  Solving for rho, Initial residual = 0, Final residual = 0, No Iterations 0
smoothSolver:  Solving for Ux, Initial residual = 0.0040152258, Final residual = 1.4834864e-06, No Iterations 2
smoothSolver:  Solving for Uy, Initial residual = 0.03486202, Final residual = 2.4796614e-08, No Iterations 4
smoothSolver:  Solving for e, Initial residual = 0.015554399, Final residual = 6.1938436e-06, No Iterations 2
smoothSolver:  Solving for p, Initial residual = 0.040323405, Final residual = 0.00076214982, No Iterations 2
diagonal:  Solving for rho, Initial residual = 0, Final residual = 0, No Iterations 0
time step continuity errors : sum local = 2.5916702e-06, global = -1.313146e-07, cumulative = -5.0034866e-06
smoothSolver:  Solving for p, Initial residual = 0.0010713349, Final residual = 5.5895759e-06, No Iterations 5
diagonal:  Solving for rho, Initial residual = 0, Final residual = 0, No Iterations 0
time step continuity errors : sum local = 1.978078e-08, global = 2.0590718e-09, cumulative = -5.0014275e-06
DILUPBiCGStab:  Solving for omega, Initial residual = 0.0028483641, Final residual = 6.9625141e-12, No Iterations 1
smoothSolver:  Solving for k, Initial residual = 0.0040424263, Final residual = 2.8894228e-07, No Iterations 1
ExecutionTime = 12.27 s  ClockTime = 12 s

forceCoeffs forces write:
    Coefficient	Total	Pressure	Viscous	Internal
    Cd:	14.218136	14.161086	0.057049838	0
    Cd(f):	7.1068173	7.0782881	0.028529287	0
    Cd(r):	7.1113189	7.0827983	0.02852055	0
    Cl:	0.0045015449	0.0045102817	-8.7368215e-06	0
    Cl(f):	0.0022514778	0.0022551409	-3.6630221e-06	0
    Cl(r):	0.002250067	0.0022551408	-5.0737993e-06	0
    CmPitch:	7.05401e-07	1.2408829e-11	7.0538859e-07	0
    CmRoll:	-0.0022507724	-0.0022551408	4.3684107e-06	0
    CmYaw:	7.1090681	7.0805432	0.028524919	0
    Cs:	5.8360092e-19	5.8918035e-19	-5.5794347e-21	0
    Cs(f):	7.1090681	7.0805432	0.028524919	0
    Cs(r):	-7.1090681	-7.0805432	-0.028524919	0

    writing force and moment coefficient files.

Courant Number mean: 0.019581891 max: 0.21567685
Time = 0.175

PIMPLE: iteration 1
diagonal:  Solving for rho, Initial residual = 0, Final residual = 0, No Iterations 0
smoothSolver:  Solving for Ux, Initial residual = 0.004053558, Final residual = 1.5188637e-06, No Iterations 2
smoothSolver:  Solving for Uy, Initial residual = 0.034188222, Final residual = 2.4576579e-08, No Iterations 4
smoothSolver:  Solving for e, Initial residual = 0.015217352, Final residual = 6.0874949e-06, No Iterations 2
smoothSolver:  Solving for p, Initial residual = 0.039053735, Final residual = 0.00069212615, No Iterations 2
diagonal:  Solving for rho, Initial residual = 0, Final residual = 0, No Iterations 0
time step continuity errors : sum local = 2.4779495e-06, global = -1.2752147e-07, cumulative = -5.128949e-06
smoothSolver:  Solving for p, Initial residual = 0.0010117792, Final residual = 6.007925e-06, No Iterations 5
diagonal:  Solving for rho, Initial residual = 0, Final residual = 0, No Iterations 0
time step continuity errors : sum local = 2.2345732e-08, global = 2.6177848e-09, cumulative = -5.1263312e-06
DILUPBiCGStab:  Solving for omega, Initial residual = 0.0028262988, Final residual = 6.9712637e-12, No Iterations 1
smoothSolver:  Solving for k, Initial residual = 0.0039004003, Final residual = 2.7915548e-07, No Iterations 1
ExecutionTime = 12.55 s  ClockTime = 13 s

forceCoeffs forces write:
    Coefficient	Total	Pressure	Viscous	Internal
    Cd:	14.12738	14.070294	0.057086036	0
    Cd(f):	7.0601032	7.0315557	0.028547439	0
    Cd(r):	7.0672772	7.0387386	0.028538598	0
    Cl:	0.0071740143	0.0071828554	-8.841062e-06	0
    Cl(f):	0.0035875541	0.0035914277	-3.873604e-06	0
    Cl(r):	0.0035864602	0.0035914277	-4.967458e-06	0
    CmPitch:	5.4694003e-07	1.3009367e-11	5.4692702e-07	0
    CmRoll:	-0.0035870072	-0.0035914277	4.420531e-06	0
    CmYaw:	7.0636902	7.0351471	0.028543018	0
    Cs:	5.8315275e-19	5.8872718e-19	-5.5744337e-21	0
    Cs(f):	7.0636902	7.0351471	0.028543018	0
    Cs(r):	-7.0636902	-7.0351471	-0.028543018	0

    writing force and moment coefficient files.

Courant Number mean: 0.019571555 max: 0.21446175
Time = 0.18

PIMPLE: iteration 1
diagonal:  Solving for rho, Initial residual = 0, Final residual = 0, No Iterations 0
smoothSolver:  Solving for Ux, Initial residual = 0.0040246894, Final residual = 1.5183518e-06, No Iterations 2
smoothSolver:  Solving for Uy, Initial residual = 0.033295554, Final residual = 2.4228166e-08, No Iterations 4
smoothSolver:  Solving for e, Initial residual = 0.014991735, Final residual = 5.9879397e-06, No Iterations 2
smoothSolver:  Solving for p, Initial residual = 0.038047745, Final residual = 0.0037158642, No Iterations 1
diagonal:  Solving for rho, Initial residual = 0, Final residual = 0, No Iterations 0
time step continuity errors : sum local = 1.3973641e-05, global = -9.2877077e-07, cumulative = -6.0551019e-06
smoothSolver:  Solving for p, Initial residual = 0.0037260362, Final residual = 6.4225248e-06, No Iterations 6
diagonal:  Solving for rho, Initial residual = 0, Final residual = 0, No Iterations 0
time step continuity errors : sum local = 2.4914766e-08, global = 3.0434187e-09, cumulative = -6.0520585e-06
DILUPBiCGStab:  Solving for omega, Initial residual = 0.0028052912, Final residual = 6.952419e-12, No Iterations 1
smoothSolver:  Solving for k, Initial residual = 0.0037693457, Final residual = 2.7129494e-07, No Iterations 1
ExecutionTime = 12.83 s  ClockTime = 13 s

forceCoeffs forces write:
    Coefficient	Total	Pressure	Viscous	Internal
    Cd:	14.034712	13.977591	0.057121218	0
    Cd(f):	7.012392	6.9838269	0.028565022	0
    Cd(r):	7.02232	6.9937638	0.028556196	0
    Cl:	0.0099280421	0.009936868	-8.8258512e-06	0
    Cl(f):	0.0049643662	0.004968434	-4.0677912e-06	0
    Cl(r):	0.0049636759	0.004968434	-4.7580601e-06	0
    CmPitch:	3.4514592e-07	1.1453005e-11	3.4513446e-07	0
    CmRoll:	-0.0049640211	-0.004968434	4.4129256e-06	0
    CmYaw:	7.017356	6.9887954	0.028560609	0
    Cs:	5.8281655e-19	5.8838428e-19	-5.5677333e-21	0
    Cs(f):	7.017356	6.9887954	0.028560609	0
    Cs(r):	-7.017356	-6.9887954	-0.028560609	0

    writing force and moment coefficient files.

Courant Number mean: 0.019561789 max: 0.21528433
Time = 0.185

PIMPLE: iteration 1
diagonal:  Solving for rho, Initial residual = 0, Final residual = 0, No Iterations 0
smoothSolver:  Solving for Ux, Initial residual = 0.0040343373, Final residual = 1.5290312e-06, No Iterations 2
smoothSolver:  Solving for Uy, Initial residual = 0.032553884, Final residual = 2.4272965e-08, No Iterations 4
smoothSolver:  Solving for e, Initial residual = 0.014912647, Final residual = 5.9939452e-06, No Iterations 2
smoothSolver:  Solving for p, Initial residual = 0.036431539, Final residual = 0.0035346123, No Iterations 1
diagonal:  Solving for rho, Initial residual = 0, Final residual = 0, No Iterations 0
time step continuity errors : sum local = 1.3936115e-05, global = -9.5740179e-07, cumulative = -7.0094603e-06
smoothSolver:  Solving for p, Initial residual = 0.0035665752, Final residual = 6.7985969e-06, No Iterations 6
diagonal:  Solving for rho, Initial residual = 0, Final residual = 0, No Iterations 0
[...]
    Coefficient	Total	Pressure	Viscous	Internal
    Cd:	0.68695004	0.64616775	0.040782285	0
    Cd(f):	3.2705342	3.2459345	0.024599689	0
    Cd(r):	-2.5835841	-2.5997667	0.016182596	0
    Cl:	-5.8541183	-5.8457012	-0.0084170936	0
    Cl(f):	-2.9248521	-2.9228506	-0.0020015514	0
    Cl(r):	-2.9292661	-2.9228506	-0.0064155422	0
    CmPitch:	0.0022069945	-9.3260219e-10	0.0022069954	0
    CmRoll:	2.9270591	2.9228506	0.0042085468	0
    CmYaw:	0.34347502	0.32308388	0.020391142	0
    Cs:	4.9108083e-19	4.9430334e-19	-3.2225065e-21	0
    Cs(f):	0.34347502	0.32308388	0.020391142	0
    Cs(r):	-0.34347502	-0.32308388	-0.020391142	0

    writing force and moment coefficient files.

Courant Number mean: 0.022381617 max: 1.1685838
Time = 2.11

PIMPLE: iteration 1
diagonal:  Solving for rho, Initial residual = 0, Final residual = 0, No Iterations 0
smoothSolver:  Solving for Ux, Initial residual = 0.016758103, Final residual = 1.1728147e-06, No Iterations 4
smoothSolver:  Solving for Uy, Initial residual = 0.021108155, Final residual = 8.6935233e-06, No Iterations 4
smoothSolver:  Solving for e, Initial residual = 0.0091351607, Final residual = 1.3715757e-06, No Iterations 4
smoothSolver:  Solving for p, Initial residual = 0.023803861, Final residual = 0.00063268921, No Iterations 2
diagonal:  Solving for rho, Initial residual = 0, Final residual = 0, No Iterations 0
time step continuity errors : sum local = 2.4546982e-05, global = -6.7853328e-06, cumulative = -0.00055747663
smoothSolver:  Solving for p, Initial residual = 0.0011608017, Final residual = 4.9150456e-06, No Iterations 5
diagonal:  Solving for rho, Initial residual = 0, Final residual = 0, No Iterations 0
time step continuity errors : sum local = 1.9189736e-07, global = -7.513383e-08, cumulative = -0.00055755177
DILUPBiCGStab:  Solving for omega, Initial residual = 0.00099069868, Final residual = 6.6633389e-12, No Iterations 2
smoothSolver:  Solving for k, Initial residual = 0.0025073951, Final residual = 1.3978493e-06, No Iterations 2
ExecutionTime = 121.49 s  ClockTime = 122 s

forceCoeffs forces write:
    Coefficient	Total	Pressure	Viscous	Internal
    Cd:	0.60496744	0.56424339	0.040724051	0
    Cd(f):	2.8691661	2.8448694	0.024296615	0
    Cd(r):	-2.2641986	-2.280626	0.016427436	0
    Cl:	-5.1333647	-5.1254955	-0.0078691795	0
    Cl(f):	-2.5645253	-2.5627477	-0.0017775548	0
    Cl(r):	-2.5688394	-2.5627477	-0.0060916247	0
    CmPitch:	0.002157034	-9.0647129e-10	0.002157035	0
    CmRoll:	2.5666823	2.5627477	0.0039345897	0
    CmYaw:	0.30248372	0.2821217	0.020362026	0
    Cs:	5.1265001e-19	5.1578878e-19	-3.1387654e-21	0
    Cs(f):	0.30248372	0.2821217	0.020362026	0
    Cs(r):	-0.30248372	-0.2821217	-0.020362026	0

    writing force and moment coefficient files.

Courant Number mean: 0.022418497 max: 1.2914777
Time = 2.115

PIMPLE: iteration 1
diagonal:  Solving for rho, Initial residual = 0, Final residual = 0, No Iterations 0
smoothSolver:  Solving for Ux, Initial residual = 0.016957516, Final residual = 1.2591971e-06, No Iterations 4
smoothSolver:  Solving for Uy, Initial residual = 0.02077241, Final residual = 8.0601907e-06, No Iterations 4
smoothSolver:  Solving for e, Initial residual = 0.009165594, Final residual = 1.6241336e-06, No Iterations 4
smoothSolver:  Solving for p, Initial residual = 0.023875851, Final residual = 0.00065282506, No Iterations 2
diagonal:  Solving for rho, Initial residual = 0, Final residual = 0, No Iterations 0
time step continuity errors : sum local = 2.5602087e-05, global = -7.1642324e-06, cumulative = -0.000564716
smoothSolver:  Solving for p, Initial residual = 0.0012036545, Final residual = 5.372951e-06, No Iterations 5
diagonal:  Solving for rho, Initial residual = 0, Final residual = 0, No Iterations 0
time step continuity errors : sum local = 2.119009e-07, global = -7.6140575e-08, cumulative = -0.00056479214
DILUPBiCGStab:  Solving for omega, Initial residual = 0.0010160953, Final residual = 5.2824232e-12, No Iterations 2
smoothSolver:  Solving for k, Initial residual = 0.002705789, Final residual = 1.7015369e-06, No Iterations 2
ExecutionTime = 121.78 s  ClockTime = 122 s

forceCoeffs forces write:
    Coefficient	Total	Pressure	Viscous	Internal
    Cd:	0.28901722	0.24823752	0.040779705	0
    Cd(f):	1.760871	1.7369081	0.023962868	0
    Cd(r):	-1.4718537	-1.4886706	0.016816837	0
    Cl:	-3.2327247	-3.2255787	-0.0071460312	0
    Cl(f):	-1.614339	-1.6127893	-0.0015496267	0
    Cl(r):	-1.6183857	-1.6127893	-0.0055964044	0
    CmPitch:	0.0020233881	-7.8752002e-10	0.0020233888	0
    CmRoll:	1.6163624	1.6127893	0.0035730156	0
    CmYaw:	0.14450861	0.12411876	0.020389853	0
    Cs:	5.3121873e-19	5.3464809e-19	-3.429357e-21	0
    Cs(f):	0.14450861	0.12411876	0.020389853	0
    Cs(r):	-0.14450861	-0.12411876	-0.020389853	0

    writing force and moment coefficient files.

Courant Number mean: 0.022428403 max: 1.3478012
Time = 2.12

PIMPLE: iteration 1
diagonal:  Solving for rho, Initial residual = 0, Final residual = 0, No Iterations 0
smoothSolver:  Solving for Ux, Initial residual = 0.017122537, Final residual = 1.1861336e-06, No Iterations 4
smoothSolver:  Solving for Uy, Initial residual = 0.020650512, Final residual = 7.8770616e-06, No Iterations 4
smoothSolver:  Solving for e, Initial residual = 0.0091104617, Final residual = 2.1316282e-06, No Iterations 4
smoothSolver:  Solving for p, Initial residual = 0.023721189, Final residual = 0.00063935484, No Iterations 2
diagonal:  Solving for rho, Initial residual = 0, Final residual = 0, No Iterations 0
time step continuity errors : sum local = 2.5341666e-05, global = -6.7820642e-06, cumulative = -0.0005715742
smoothSolver:  Solving for p, Initial residual = 0.0011973544, Final residual = 5.0619709e-06, No Iterations 5
diagonal:  Solving for rho, Initial residual = 0, Final residual = 0, No Iterations 0
time step continuity errors : sum local = 2.0160836e-07, global = -5.3005648e-08, cumulative = -0.00057162721
DILUPBiCGStab:  Solving for omega, Initial residual = 0.0010090368, Final residual = 2.6702136e-12, No Iterations 2
smoothSolver:  Solving for k, Initial residual = 0.0027328816, Final residual = 1.5460139e-06, No Iterations 2
ExecutionTime = 122.08 s  ClockTime = 122 s

forceCoeffs forces write:
    Coefficient	Total	Pressure	Viscous	Internal
    Cd:	-0.1955051	-0.23650763	0.041002524	0
    Cd(f):	0.212168	0.18831415	0.023853848	0
    Cd(r):	-0.4076731	-0.42482178	0.017148677	0
    Cl:	-0.6198411	-0.61313593	-0.0067051706	0
    Cl(f):	-0.30809927	-0.30656797	-0.0015313067	0
    Cl(r):	-0.31174183	-0.30656797	-0.0051738639	0
    CmPitch:	0.001821278	-5.4923305e-10	0.0018212786	0
    CmRoll:	0.30992055	0.30656797	0.0033525853	0
    CmYaw:	-0.097752552	-0.11825381	0.020501262	0
    Cs:	5.6783031e-19	5.7159356e-19	-3.7632515e-21	0
    Cs(f):	-0.097752552	-0.11825381	0.020501262	0
    Cs(r):	0.097752552	0.11825381	-0.020501262	0

    writing force and moment coefficient files.

Courant Number mean: 0.022413829 max: 1.3427221
Time = 2.125

PIMPLE: iteration 1
diagonal:  Solving for rho, Initial residual = 0, Final residual = 0, No Iterations 0
smoothSolver:  Solving for Ux, Initial residual = 0.017224121, Final residual = 1.1399689e-06, No Iterations 4
smoothSolver:  Solving for Uy, Initial residual = 0.020781126, Final residual = 6.4720926e-06, No Iterations 4
smoothSolver:  Solving for e, Initial residual = 0.0089834278, Final residual = 1.7884064e-06, No Iterations 4
smoothSolver:  Solving for p, Initial residual = 0.023489931, Final residual = 0.00060211887, No Iterations 2
diagonal:  Solving for rho, Initial residual = 0, Final residual = 0, No Iterations 0
time step continuity errors : sum local = 2.4093342e-05, global = -5.9707848e-06, cumulative = -0.00057759799
smoothSolver:  Solving for p, Initial residual = 0.0011585676, Final residual = 4.6530348e-06, No Iterations 5
diagonal:  Solving for rho, Initial residual = 0, Final residual = 0, No Iterations 0
time step continuity errors : sum local = 1.8701776e-07, global = -3.7480444e-08, cumulative = -0.00057763547
DILUPBiCGStab:  Solving for omega, Initial residual = 0.0010028725, Final residual = 1.3490711e-12, No Iterations 2
smoothSolver:  Solving for k, Initial residual = 0.0027515425, Final residual = 1.4051752e-06, No Iterations 2
ExecutionTime = 122.38 s  ClockTime = 123 s

forceCoeffs forces write:
    Coefficient	Total	Pressure	Viscous	Internal
    Cd:	-0.62580642	-0.66703286	0.041226441	0
    Cd(f):	-1.0553086	-1.0794189	0.024110271	0
    Cd(r):	0.42950221	0.41238604	0.01711617	0
    Cl:	1.4848108	1.4918049	-0.0069941007	0
    Cl(f):	0.74409661	0.74590247	-0.0018058646	0
    Cl(r):	0.74071424	0.74590247	-0.0051882361	0
    CmPitch:	0.0016911857	-7.1159514e-11	0.0016911858	0
    CmRoll:	-0.74240542	-0.74590247	0.0034970503	0
    CmYaw:	-0.31290321	-0.33351643	0.020613221	0
    Cs:	6.2057109e-19	6.2456372e-19	-3.9926258e-21	0
    Cs(f):	-0.31290321	-0.33351643	0.020613221	0
    Cs(r):	0.31290321	0.33351643	-0.020613221	0

    writing force and moment coefficient files.

Courant Number mean: 0.022382954 max: 1.3721203
Time = 2.13

PIMPLE: iteration 1
diagonal:  Solving for rho, Initial residual = 0, Final residual = 0, No Iterations 0
smoothSolver:  Solving for Ux, Initial residual = 0.017323367, Final residual = 1.0649728e-06, No Iterations 4
smoothSolver:  Solving for Uy, Initial residual = 0.020941713, Final residual = 3.8666343e-06, No Iterations 4
smoothSolver:  Solving for e, Initial residual = 0.008807349, Final residual = 1.1866654e-06, No Iterations 4
smoothSolver:  Solving for p, Initial residual = 0.02327132, Final residual = 0.0022614162, No Iterations 1
diagonal:  Solving for rho, Initial residual = 0, Final residual = 0, No Iterations 0
time step continuity errors : sum local = 9.1263317e-05, global = -1.3801512e-05, cumulative = -0.00059143699
smoothSolver:  Solving for p, Initial residual = 0.0025160321, Final residual = 8.9553099e-06, No Iterations 5
diagonal:  Solving for rho, Initial residual = 0, Final residual = 0, No Iterations 0
time step continuity errors : sum local = 3.6194251e-07, global = -7.062765e-08, cumulative = -0.00059150761
DILUPBiCGStab:  Solving for omega, Initial residual = 0.0010062007, Final residual = 2.4194417e-12, No Iterations 2
smoothSolver:  Solving for k, Initial residual = 0.0029276658, Final residual = 1.7239466e-06, No Iterations 2
ExecutionTime = 122.68 s  ClockTime = 123 s

forceCoeffs forces write:
    Coefficient	Total	Pressure	Viscous	Internal
    Cd:	-0.74812158	-0.78927419	0.041152603	0
    Cd(f):	-1.3533041	-1.3778213	0.02451718	0
    Cd(r):	0.60518252	0.5885471	0.016635423	0
    Cl:	1.9584866	1.9663684	-0.0078817572	0
    Cl(f):	0.98103121	0.98318419	-0.0021529784	0
    Cl(r):	0.97745541	0.98318419	-0.0057287788	0
    CmPitch:	0.0017879012	1.0552948e-09	0.0017879002	0
    CmRoll:	-0.97924331	-0.98318419	0.0039408786	0
    CmYaw:	-0.37406079	-0.39463709	0.020576302	0
    Cs:	6.4918301e-19	6.5327911e-19	-4.0961069e-21	0
    Cs(f):	-0.37406079	-0.39463709	0.020576302	0
    Cs(r):	0.37406079	0.39463709	-0.020576302	0

    writing force and moment coefficient files.

Courant Number mean: 0.022378798 max: 1.3432089
Time = 2.135

PIMPLE: iteration 1
diagonal:  Solving for rho, Initial residual = 0, Final residual = 0, No Iterations 0
smoothSolver:  Solving for Ux, Initial residual = 0.017433901, Final residual = 1.0218782e-06, No Iterations 4
smoothSolver:  Solving for Uy, Initial residual = 0.021102136, Final residual = 4.9162724e-06, No Iterations 4
smoothSolver:  Solving for e, Initial residual = 0.008675219, Final residual = 1.1689836e-06, No Iterations 4
smoothSolver:  Solving for p, Initial residual = 0.023287421, Final residual = 0.0022745898, No Iterations 1
diagonal:  Solving for rho, Initial residual = 0, Final residual = 0, No Iterations 0
time step continuity errors : sum local = 9.2565876e-05, global = -1.4423128e-05, cumulative = -0.00060593074
smoothSolver:  Solving for p, Initial residual = 0.0025348055, Final residual = 8.5678991e-06, No Iterations 5
diagonal:  Solving for rho, Initial residual = 0, Final residual = 0, No Iterations 0
time step continuity errors : sum local = 3.4939827e-07, global = -9.7923286e-08, cumulative = -0.00060602867
DILUPBiCGStab:  Solving for omega, Initial residual = 0.0010490767, Final residual = 5.7686783e-12, No Iterations 2
smoothSolver:  Solving for k, Initial residual = 0.0030938171, Final residual = 2.2191887e-06, No Iterations 2
ExecutionTime = 122.98 s  ClockTime = 123 s

forceCoeffs forces write:
    Coefficient	Total	Pressure	Viscous	Internal
    Cd:	-0.49849821	-0.53927525	0.040777036	0
    Cd(f):	-0.63073218	-0.65542538	0.0246932	0
    Cd(r):	0.13223397	0.11615013	0.016083836	0
    Cl:	0.76296614	0.77157551	-0.0086093641	0
    Cl(f):	0.38350901	0.38578776	-0.0022787475	0
    Cl(r):	0.37945714	0.38578775	-0.0063306166	0
    CmPitch:	0.0020259368	2.2242571e-09	0.0020259346	0
    CmRoll:	-0.38148307	-0.38578775	0.0043046821	0
    CmYaw:	-0.24924911	-0.26963762	0.020388518	0
    Cs:	6.3643912e-19	6.4032693e-19	-3.8878027e-21	0
    Cs(f):	-0.24924911	-0.26963762	0.020388518	0
    Cs(r):	0.24924911	0.26963762	-0.020388518	0

    writing force and moment coefficient files.

Courant Number mean: 0.022416685 max: 1.2734112
Time = 2.14

PIMPLE: iteration 1
diagonal:  Solving for rho, Initial residual = 0, Final residual = 0, No Iterations 0
smoothSolver:  Solving for Ux, Initial residual = 0.017599214, Final residual = 1.3075008e-06, No Iterations 4
smoothSolver:  Solving for Uy, Initial residual = 0.021089967, Final residual = 2.1775814e-06, No Iterations 6
smoothSolver:  Solving for e, Initial residual = 0.0086126665, Final residual = 1.8507637e-06, No Iterations 4
smoothSolver:  Solving for p, Initial residual = 0.023478208, Final residual = 0.00059998824, No Iterations 2
diagonal:  Solving for rho, Initial residual = 0, Final residual = 0, No Iterations 0
time step continuity errors : sum local = 2.4641376e-05, global = -6.8979968e-06, cumulative = -0.00061292666
smoothSolver:  Solving for p, Initial residual = 0.0012287178, Final residual = 4.8852454e-06, No Iterations 5
diagonal:  Solving for rho, Initial residual = 0, Final residual = 0, No Iterations 0
time step continuity errors : sum local = 2.0193993e-07, global = -8.5968032e-08, cumulative = -0.00061301263
DILUPBiCGStab:  Solving for omega, Initial residual = 0.0010902281, Final residual = 2.1369748e-11, No Iterations 2
smoothSolver:  Solving for k, Initial residual = 0.0031148503, Final residual = 2.8429673e-06, No Iterations 2
ExecutionTime = 123.31 s  ClockTime = 123 s

forceCoeffs forces write:
    Coefficient	Total	Pressure	Viscous	Internal
    Cd:	-0.075078067	-0.11541929	0.040341224	0
    Cd(f):	0.50482856	0.48022366	0.024604895	0
    Cd(r):	-0.57990663	-0.59564296	0.01573633	0
    Cl:	-1.0847352	-1.0758666	-0.0088685651	0
    Cl(f):	-0.54013368	-0.53793331	-0.0022003768	0
    Cl(r):	-0.5446015	-0.53793331	-0.0066681883	0
    CmPitch:	0.0022339079	2.1600578e-09	0.0022339057	0
    CmRoll:	0.54236759	0.53793331	0.0044342825	0
    CmYaw:	-0.037539034	-0.057709646	0.020170612	0
    Cs:	5.98243e-19	6.0200544e-19	-3.7624398e-21	0
    Cs(f):	-0.037539034	-0.057709646	0.020170612	0
    Cs(r):	0.037539034	0.057709646	-0.020170612	0

    writing force and moment coefficient files.

Courant Number mean: 0.022461037 max: 1.5114046
Time = 2.145

PIMPLE: iteration 1
diagonal:  Solving for rho, Initial residual = 0, Final residual = 0, No Iterations 0
smoothSolver:  Solving for Ux, Initial residual = 0.017795329, Final residual = 4.2500241e-06, No Iterations 4
smoothSolver:  Solving for Uy, Initial residual = 0.020999331, Final residual = 9.3259163e-06, No Iterations 12
smoothSolver:  Solving for e, Initial residual = 0.0086045845, Final residual = 6.5557382e-06, No Iterations 4
smoothSolver:  Solving for p, Initial residual = 0.023701547, Final residual = 0.00062967602, No Iterations 2
diagonal:  Solving for rho, Initial residual = 0, Final residual = 0, No Iterations 0
time step continuity errors : sum local = 2.6141245e-05, global = -7.7765562e-06, cumulative = -0.00062078919
smoothSolver:  Solving for p, Initial residual = 0.001284186, Final residual = 5.5630817e-06, No Iterations 5
diagonal:  Solving for rho, Initial residual = 0, Final residual = 0, No Iterations 0
time step continuity errors : sum local = 2.3249413e-07, global = -1.1218063e-07, cumulative = -0.00062090137
DILUPBiCGStab:  Solving for omega, Initial residual = 0.0010970903, Final residual = 2.8678128e-11, No Iterations 2
smoothSolver:  Solving for k, Initial residual = 0.0030344246, Final residual = 3.3677871e-06, No Iterations 2
ExecutionTime = 123.62 s  ClockTime = 124 s

forceCoeffs forces write:
    Coefficient	Total	Pressure	Viscous	Internal
    Cd:	0.28341292	0.24342654	0.039986376	0
    Cd(f):	1.4670688	1.442638	0.024430773	0
    Cd(r):	-1.1836559	-1.1992115	0.015555604	0
    Cl:	-2.6507247	-2.6418495	-0.0088751692	0
    Cl(f):	-1.3230043	-1.3209248	-0.0020795459	0
    Cl(r):	-1.3277204	-1.3209248	-0.0067956232	0
    CmPitch:	0.0023580395	8.1996625e-10	0.0023580386	0
    CmRoll:	1.3253624	1.3209248	0.0044375846	0
    CmYaw:	0.14170646	0.12171327	0.019993188	0
    Cs:	5.3981873e-19	5.433677e-19	-3.5489724e-21	0
    Cs(f):	0.14170646	0.12171327	0.019993188	0
    Cs(r):	-0.14170646	-0.12171327	-0.019993188	0

    writing force and moment coefficient files.

Courant Number mean: 0.022483507 max: 1.6500979
Time = 2.15

PIMPLE: iteration 1
diagonal:  Solving for rho, Initial residual = 0, Final residual = 0, No Iterations 0
smoothSolver:  Solving for Ux, Initial residual = 0.017999708, Final residual = 9.4808798e-06, No Iterations 4
smoothSolver:  Solving for Uy, Initial residual = 0.020975207, Final residual = 8.150685e-06, No Iterations 10
smoothSolver:  Solving for e, Initial residual = 0.0085886916, Final residual = 6.6812279e-06, No Iterations 6
smoothSolver:  Solving for p, Initial residual = 0.023699612, Final residual = 0.0006286999, No Iterations 2
diagonal:  Solving for rho, Initial residual = 0, Final residual = 0, No Iterations 0
time step continuity errors : sum local = 2.6407754e-05, global = -7.910333e-06, cumulative = -0.0006288117
smoothSolver:  Solving for p, Initial residual = 0.0012852213, Final residual = 5.2440963e-06, No Iterations 5
diagonal:  Solving for rho, Initial residual = 0, Final residual = 0, No Iterations 0
time step continuity errors : sum local = 2.2168106e-07, global = -1.0042112e-07, cumulative = -0.00062891212
DILUPBiCGStab:  Solving for omega, Initial residual = 0.0010756394, Final residual = 2.0189375e-11, No Iterations 2
smoothSolver:  Solving for k, Initial residual = 0.0029847018, Final residual = 3.3521061e-06, No Iterations 2
ExecutionTime = 123.99 s  ClockTime = 124 s

forceCoeffs forces write:
    Coefficient	Total	Pressure	Viscous	Internal
    Cd:	0.46900802	0.42933908	0.039668943	0
    Cd(f):	2.0500204	2.0257952	0.024225228	0
    Cd(r):	-1.5810124	-1.5964561	0.015443714	0
    Cl:	-3.6310327	-3.6222512	-0.008781514	0
    Cl(f):	-1.8130756	-1.8111256	-0.0019499938	0
    Cl(r):	-1.8179571	-1.8111256	-0.0068315202	0
    CmPitch:	0.0024407624	-8.4069402e-10	0.0024407632	0
    CmRoll:	1.8155164	1.8111256	0.004390757	0
    CmYaw:	0.23450401	0.21466954	0.019834471	0
    Cs:	4.6613933e-19	4.6954833e-19	-3.4089945e-21	0
    Cs(f):	0.23450401	0.21466954	0.019834471	0
    Cs(r):	-0.23450401	-0.21466954	-0.019834471	0

    writing force and moment coefficient files.

Courant Number mean: 0.022469702 max: 1.6330081
Time = 2.155

PIMPLE: iteration 1
diagonal:  Solving for rho, Initial residual = 0, Final residual = 0, No Iterations 0
smoothSolver:  Solving for Ux, Initial residual = 0.018200168, Final residual = 9.041888e-06, No Iterations 6
smoothSolver:  Solving for Uy, Initial residual = 0.021040365, Final residual = 3.6295282e+34, No Iterations 1000
smoothSolver:  Solving for e, Initial residual = 1, Final residual = 5.2969433e-06, No Iterations 34
