/*---------------------------------------------------------------------------*\
| =========                 |                                                 |
| \\      /  F ield         | OpenFOAM: The Open Source CFD Toolbox           |
|  \\    /   O peration     | Version:  2406                                  |
|   \\  /    A nd           | Website:  www.openfoam.com                      |
|    \\/     M anipulation  |                                                 |
\*---------------------------------------------------------------------------*/
Build  : _be01ca78-20240625 OPENFOAM=2406 version=2406
Arch   : "LSB;label=32;scalar=64"
Exec   : rhoPimpleFoam
Date   : Oct 28 2024
Time   : 10:08:49
Host   : jakub-Lenovo-ideapad-330-15ICH
PID    : 25419
I/O    : uncollated
Case   : /home/jakub/Desktop/AE4202/CFD_assignment
nProcs : 1
trapFpe: Floating point exception trapping enabled (FOAM_SIGFPE).
fileModificationChecking : Monitoring run-time modified files using timeStampMaster (fileModificationSkew 5, maxFileModificationPolls 20)
allowSystemOperations : Allowing user-supplied system call operations

// * * * * * * * * * * * * * * * * * * * * * * * * * * * * * * * * * * * * * //
Create time

Create mesh for time = 0


PIMPLE: Operating solver in PISO mode

Reading thermophysical properties

Selecting thermodynamics package 
{
    type            hePsiThermo;
    mixture         pureMixture;
    transport       sutherland;
    thermo          hConst;
    equationOfState perfectGas;
    specie          specie;
    energy          sensibleInternalEnergy;
}

Reading field U

Reading/calculating face flux field phi

Creating turbulence model

Selecting turbulence model type RAS
Selecting RAS turbulence model kOmegaSST
Selecting patchDistMethod meshWave
RAS
{
    RASModel        kOmegaSST;
    turbulence      on;
    printCoeffs     on;
    alphaK1         0.85;
    alphaK2         1;
    alphaOmega1     0.5;
    alphaOmega2     0.856;
    gamma1          0.55555556;
    gamma2          0.44;
    beta1           0.075;
    beta2           0.0828;
    betaStar        0.09;
    a1              0.31;
    b1              1;
    c1              10;
    F3              false;
    decayControl    false;
    kInf            0;
    omegaInf        0;
}

Creating field dpdt

Creating field kinetic energy K

No MRF models present

No finite volume options present
Courant Number mean: 0.024705505 max: 0.37461595

Starting time loop

fieldAverage fieldAverage1:
    Restarting averaging for fields:
        U: starting averaging at time 0
        p: starting averaging at time 0
        nut: starting averaging at time 0
        T: starting averaging at time 0

forceCoeffs forces:
    p: p
    U: U
    rho: rhoInf
    Freestream density (rhoInf) set to 1
    Not including porosity effects
    magUInf: 0.17748239
    lRef   : 1
    Aref   : 1
    rhoInf : 1
    Selecting all coefficients
    - Drag force: Cd
    - Drag force front: Cd(f)
    - Drag force rear: Cd(r)
    - Lift force: Cl
    - Lift force front: Cl(f)
    - Lift force rear: Cl(r)
    - Pitch moment: CmPitch
    - Roll moment: CmRoll
    - Yaw moment: CmYaw
    - Side force: Cs
    - Side force front: Cs(f)
    - Side force rear: Cs(r)


Sampled set:
    top -> raw
    bottom -> raw

Courant Number mean: 0.024705505 max: 0.37461595
Time = 0.005

PIMPLE: iteration 1
diagonal:  Solving for rho, Initial residual = 0, Final residual = 0, No Iterations 0
smoothSolver:  Solving for Ux, Initial residual = 0.99999681, Final residual = 3.8157989e-07, No Iterations 6
smoothSolver:  Solving for Uy, Initial residual = 1, Final residual = 6.9373138e-07, No Iterations 6
smoothSolver:  Solving for e, Initial residual = 0.99994166, Final residual = 4.2168367e-06, No Iterations 4
smoothSolver:  Solving for p, Initial residual = 1, Final residual = 0.094985202, No Iterations 7
diagonal:  Solving for rho, Initial residual = 0, Final residual = 0, No Iterations 0
time step continuity errors : sum local = 5.3422091e-06, global = -9.8515846e-07, cumulative = -9.8515846e-07
smoothSolver:  Solving for p, Initial residual = 0.064724681, Final residual = 9.8119536e-06, No Iterations 24
diagonal:  Solving for rho, Initial residual = 0, Final residual = 0, No Iterations 0
time step continuity errors : sum local = 3.2134582e-09, global = 1.2517704e-09, cumulative = -9.8390669e-07
DILUPBiCGStab:  Solving for omega, Initial residual = 0.0034079425, Final residual = 4.6192527e-12, No Iterations 2
smoothSolver:  Solving for k, Initial residual = 1, Final residual = 1.3686774e-06, No Iterations 2
ExecutionTime = 2.8 s  ClockTime = 3 s

forceCoeffs forces write:
    Coefficient	Total	Pressure	Viscous	Internal
    Cd:	20.403299	20.282808	0.12049002	0
    Cd(f):	10.20692	10.146675	0.060244927	0
    Cd(r):	10.196379	10.136134	0.060245091	0
    Cl:	-0.010540671	-0.010540834	1.637373e-07	0
    Cl(f):	-0.005264449	-0.0052704173	5.9682946e-06	0
    Cl(r):	-0.0052762217	-0.0052704171	-5.8045573e-06	0
    CmPitch:	5.886348e-06	-7.795607e-11	5.886426e-06	0
    CmRoll:	0.0052703353	0.0052704172	-8.1868649e-08	0
    CmYaw:	10.201649	10.141404	0.060245009	0
    Cs:	5.775747e-19	5.895279e-19	-1.1953205e-20	0
    Cs(f):	10.201649	10.141404	0.060245009	0
    Cs(r):	-10.201649	-10.141404	-0.060245009	0

    writing force and moment coefficient files.

Courant Number mean: 0.024632572 max: 0.3566517
Time = 0.01

PIMPLE: iteration 1
diagonal:  Solving for rho, Initial residual = 0, Final residual = 0, No Iterations 0
smoothSolver:  Solving for Ux, Initial residual = 0.022210563, Final residual = 4.6771666e-07, No Iterations 4
smoothSolver:  Solving for Uy, Initial residual = 0.34037896, Final residual = 5.0074822e-06, No Iterations 4
smoothSolver:  Solving for e, Initial residual = 0.051578963, Final residual = 1.9797284e-06, No Iterations 4
smoothSolver:  Solving for p, Initial residual = 0.1443534, Final residual = 0.0099518359, No Iterations 3
diagonal:  Solving for rho, Initial residual = 0, Final residual = 0, No Iterations 0
time step continuity errors : sum local = 3.6284742e-06, global = -5.621407e-07, cumulative = -1.5460474e-06
smoothSolver:  Solving for p, Initial residual = 0.0081877589, Final residual = 7.0306159e-06, No Iterations 8
diagonal:  Solving for rho, Initial residual = 0, Final residual = 0, No Iterations 0
time step continuity errors : sum local = 3.242307e-09, global = -5.7320455e-11, cumulative = -1.5461047e-06
DILUPBiCGStab:  Solving for omega, Initial residual = 0.0034266101, Final residual = 1.7871354e-13, No Iterations 2
smoothSolver:  Solving for k, Initial residual = 0.27879594, Final residual = 7.5729614e-08, No Iterations 2
ExecutionTime = 3.12 s  ClockTime = 3 s

forceCoeffs forces write:
    Coefficient	Total	Pressure	Viscous	Internal
    Cd:	25.953605	25.856601	0.097003703	0
    Cd(f):	12.977091	12.928588	0.048503059	0
    Cd(r):	12.976514	12.928014	0.048500644	0
    Cl:	-0.00057681171	-0.00057439729	-2.4144137e-06	0
    Cl(f):	-0.00028475647	-0.00028719854	2.442071e-06	0
    Cl(r):	-0.00029205524	-0.00028719876	-4.8564848e-06	0
    CmPitch:	3.6493876e-06	1.0967121e-10	3.6492779e-06	0
    CmRoll:	0.00028840585	0.00028719865	1.2072069e-06	0
    CmYaw:	12.976803	12.928301	0.048501852	0
    Cs:	5.8760767e-19	5.9386124e-19	-6.2535721e-21	0
    Cs(f):	12.976803	12.928301	0.048501852	0
    Cs(r):	-12.976803	-12.928301	-0.048501852	0

    writing force and moment coefficient files.

Courant Number mean: 0.024563039 max: 0.34681922
Time = 0.015

PIMPLE: iteration 1
diagonal:  Solving for rho, Initial residual = 0, Final residual = 0, No Iterations 0
smoothSolver:  Solving for Ux, Initial residual = 0.012511681, Final residual = 2.0432923e-07, No Iterations 4
smoothSolver:  Solving for Uy, Initial residual = 0.22716981, Final residual = 2.5826711e-06, No Iterations 4
smoothSolver:  Solving for e, Initial residual = 0.032915102, Final residual = 5.0842925e-07, No Iterations 4
smoothSolver:  Solving for p, Initial residual = 0.1259403, Final residual = 0.0069769109, No Iterations 3
diagonal:  Solving for rho, Initial residual = 0, Final residual = 0, No Iterations 0
time step continuity errors : sum local = 3.6942057e-06, global = -4.038517e-07, cumulative = -1.9499564e-06
smoothSolver:  Solving for p, Initial residual = 0.0063919969, Final residual = 5.4290381e-06, No Iterations 8
diagonal:  Solving for rho, Initial residual = 0, Final residual = 0, No Iterations 0
time step continuity errors : sum local = 3.2174041e-09, global = 2.998001e-10, cumulative = -1.9496566e-06
DILUPBiCGStab:  Solving for omega, Initial residual = 0.003465443, Final residual = 1.520462e-13, No Iterations 2
smoothSolver:  Solving for k, Initial residual = 0.14487184, Final residual = 3.8420915e-08, No Iterations 2
ExecutionTime = 3.42 s  ClockTime = 4 s

forceCoeffs forces write:
    Coefficient	Total	Pressure	Viscous	Internal
    Cd:	24.018576	23.930618	0.087957673	0
    Cd(f):	12.007059	11.963074	0.043984706	0
    Cd(r):	12.011517	11.967544	0.043972967	0
    Cl:	0.0044582869	0.0044700255	-1.1738629e-05	0
    Cl(f):	0.0022313019	0.0022350129	-3.710962e-06	0
    Cl(r):	0.0022269849	0.0022350126	-8.0276674e-06	0
    CmPitch:	2.1585099e-06	1.5721565e-10	2.1583527e-06	0
    CmRoll:	-0.0022291434	-0.0022350128	5.8693147e-06	0
    CmYaw:	12.009288	11.965309	0.043978836	0
    Cs:	5.8931471e-19	5.9571117e-19	-6.3964572e-21	0
    Cs(f):	12.009288	11.965309	0.043978836	0
    Cs(r):	-12.009288	-11.965309	-0.043978836	0

    writing force and moment coefficient files.

Courant Number mean: 0.024502827 max: 0.33783932
Time = 0.02

PIMPLE: iteration 1
diagonal:  Solving for rho, Initial residual = 0, Final residual = 0, No Iterations 0
smoothSolver:  Solving for Ux, Initial residual = 0.0079791783, Final residual = 1.2596535e-07, No Iterations 4
smoothSolver:  Solving for Uy, Initial residual = 0.15613069, Final residual = 1.7313785e-06, No Iterations 4
smoothSolver:  Solving for e, Initial residual = 0.030035233, Final residual = 4.3276558e-07, No Iterations 4
smoothSolver:  Solving for p, Initial residual = 0.10479457, Final residual = 0.0052054609, No Iterations 3
diagonal:  Solving for rho, Initial residual = 0, Final residual = 0, No Iterations 0
time step continuity errors : sum local = 3.3987154e-06, global = -3.2866951e-07, cumulative = -2.2783261e-06
smoothSolver:  Solving for p, Initial residual = 0.005332518, Final residual = 9.0448705e-06, No Iterations 7
diagonal:  Solving for rho, Initial residual = 0, Final residual = 0, No Iterations 0
time step continuity errors : sum local = 6.0856955e-09, global = 5.313933e-10, cumulative = -2.2777947e-06
DILUPBiCGStab:  Solving for omega, Initial residual = 0.0033646463, Final residual = 8.789807e-11, No Iterations 1
smoothSolver:  Solving for k, Initial residual = 0.091518772, Final residual = 9.4360939e-06, No Iterations 1
ExecutionTime = 3.71 s  ClockTime = 4 s

forceCoeffs forces write:
    Coefficient	Total	Pressure	Viscous	Internal
    Cd:	20.669424	20.581068	0.088356495	0
    Cd(f):	10.332342	10.288155	0.044187624	0
    Cd(r):	10.337082	10.292913	0.044168872	0
    Cl:	0.0047396984	0.0047584501	-1.8751777e-05	0
    Cl(f):	0.0023713474	0.0023792251	-7.8777703e-06	0
    Cl(r):	0.002368351	0.002379225	-1.0874006e-05	0
    CmPitch:	1.4981943e-06	7.6251822e-11	1.498118e-06	0
    CmRoll:	-0.0023698492	-0.0023792251	9.3758883e-06	0
    CmYaw:	10.334712	10.290534	0.044178248	0
    Cs:	5.9084607e-19	5.9729765e-19	-6.4515802e-21	0
    Cs(f):	10.334712	10.290534	0.044178248	0
    Cs(r):	-10.334712	-10.290534	-0.044178248	0

    writing force and moment coefficient files.

Courant Number mean: 0.024437629 max: 0.33018561
Time = 0.025

PIMPLE: iteration 1
diagonal:  Solving for rho, Initial residual = 0, Final residual = 0, No Iterations 0
smoothSolver:  Solving for Ux, Initial residual = 0.0070108259, Final residual = 9.2320153e-08, No Iterations 4
smoothSolver:  Solving for Uy, Initial residual = 0.13883226, Final residual = 1.3046844e-06, No Iterations 4
smoothSolver:  Solving for e, Initial residual = 0.026714637, Final residual = 3.5931672e-07, No Iterations 4
smoothSolver:  Solving for p, Initial residual = 0.099518018, Final residual = 0.0047839846, No Iterations 3
diagonal:  Solving for rho, Initial residual = 0, Final residual = 0, No Iterations 0
time step continuity errors : sum local = 3.496312e-06, global = -2.2865771e-07, cumulative = -2.5064524e-06
smoothSolver:  Solving for p, Initial residual = 0.0047343362, Final residual = 5.6745273e-06, No Iterations 7
diagonal:  Solving for rho, Initial residual = 0, Final residual = 0, No Iterations 0
time step continuity errors : sum local = 4.2274217e-09, global = 4.8002831e-10, cumulative = -2.5059724e-06
DILUPBiCGStab:  Solving for omega, Initial residual = 0.003295017, Final residual = 7.1481504e-11, No Iterations 1
smoothSolver:  Solving for k, Initial residual = 0.064018415, Final residual = 6.6294221e-06, No Iterations 1
ExecutionTime = 4 s  ClockTime = 4 s

forceCoeffs forces write:
    Coefficient	Total	Pressure	Viscous	Internal
    Cd:	19.327624	19.237406	0.090218751	0
    Cd(f):	9.6634286	9.6183084	0.045120233	0
    Cd(r):	9.6641958	9.6190973	0.045098517	0
    Cl:	0.00076721687	0.00078893277	-2.1715901e-05	0
    Cl(f):	0.00038563995	0.00039446636	-8.8264073e-06	0
    Cl(r):	0.00038157692	0.00039446641	-1.2889494e-05	0
    CmPitch:	2.0315169e-06	-2.654377e-11	2.0315435e-06	0
    CmRoll:	-0.00038360844	-0.00039446639	1.0857951e-05	0
    CmYaw:	9.6638122	9.6187029	0.045109375	0
    Cs:	5.9062457e-19	5.971331e-19	-6.5085316e-21	0
    Cs(f):	9.6638122	9.6187029	0.045109375	0
    Cs(r):	-9.6638122	-9.6187029	-0.045109375	0

    writing force and moment coefficient files.

Courant Number mean: 0.024372238 max: 0.32328258
Time = 0.03

PIMPLE: iteration 1
diagonal:  Solving for rho, Initial residual = 0, Final residual = 0, No Iterations 0
smoothSolver:  Solving for Ux, Initial residual = 0.0063358864, Final residual = 7.0227171e-08, No Iterations 4
smoothSolver:  Solving for Uy, Initial residual = 0.12433629, Final residual = 9.894552e-07, No Iterations 4
smoothSolver:  Solving for e, Initial residual = 0.024436621, Final residual = 2.9137901e-07, No Iterations 4
smoothSolver:  Solving for p, Initial residual = 0.099117367, Final residual = 0.0043638793, No Iterations 3
diagonal:  Solving for rho, Initial residual = 0, Final residual = 0, No Iterations 0
time step continuity errors : sum local = 3.4900238e-06, global = -1.8408949e-07, cumulative = -2.6900619e-06
smoothSolver:  Solving for p, Initial residual = 0.0044517664, Final residual = 4.0158242e-06, No Iterations 7
diagonal:  Solving for rho, Initial residual = 0, Final residual = 0, No Iterations 0
time step continuity errors : sum local = 3.3064401e-09, global = 3.3320318e-10, cumulative = -2.6897287e-06
DILUPBiCGStab:  Solving for omega, Initial residual = 0.0032298221, Final residual = 6.0837297e-11, No Iterations 1
smoothSolver:  Solving for k, Initial residual = 0.047425126, Final residual = 5.0242437e-06, No Iterations 1
ExecutionTime = 4.29 s  ClockTime = 5 s

forceCoeffs forces write:
    Coefficient	Total	Pressure	Viscous	Internal
    Cd:	19.686494	19.596996	0.089497847	0
    Cd(f):	9.8445405	9.7997824	0.044758128	0
    Cd(r):	9.8419533	9.7972135	0.044739719	0
    Cl:	-0.0025872876	-0.0025688789	-1.8408696e-05	0
    Cl(f):	-0.0012910899	-0.0012844395	-6.6503634e-06	0
    Cl(r):	-0.0012961978	-0.0012844394	-1.1758333e-05	0
    CmPitch:	2.5539315e-06	-5.3039821e-11	2.5539846e-06	0
    CmRoll:	0.0012936438	0.0012844395	9.204348e-06	0
    CmYaw:	9.8432469	9.798498	0.044748924	0
    Cs:	5.8940661e-19	5.959263e-19	-6.5196845e-21	0
    Cs(f):	9.8432469	9.798498	0.044748924	0
    Cs(r):	-9.8432469	-9.798498	-0.044748924	0

    writing force and moment coefficient files.

Courant Number mean: 0.024308449 max: 0.31681138
Time = 0.035

PIMPLE: iteration 1
diagonal:  Solving for rho, Initial residual = 0, Final residual = 0, No Iterations 0
smoothSolver:  Solving for Ux, Initial residual = 0.0057407424, Final residual = 5.6485549e-08, No Iterations 4
smoothSolver:  Solving for Uy, Initial residual = 0.10965007, Final residual = 7.8513636e-07, No Iterations 4
smoothSolver:  Solving for e, Initial residual = 0.023363165, Final residual = 2.389518e-07, No Iterations 4
smoothSolver:  Solving for p, Initial residual = 0.094145663, Final residual = 0.0038433611, No Iterations 3
diagonal:  Solving for rho, Initial residual = 0, Final residual = 0, No Iterations 0
time step continuity errors : sum local = 3.3687132e-06, global = -1.8181546e-07, cumulative = -2.8715441e-06
smoothSolver:  Solving for p, Initial residual = 0.0038529049, Final residual = 8.4727034e-06, No Iterations 6
diagonal:  Solving for rho, Initial residual = 0, Final residual = 0, No Iterations 0
time step continuity errors : sum local = 7.6663836e-09, global = 4.3691157e-10, cumulative = -2.8711072e-06
DILUPBiCGStab:  Solving for omega, Initial residual = 0.0031546133, Final residual = 5.4373432e-11, No Iterations 1
smoothSolver:  Solving for k, Initial residual = 0.036713781, Final residual = 3.8358007e-06, No Iterations 1
ExecutionTime = 4.58 s  ClockTime = 5 s

forceCoeffs forces write:
    Coefficient	Total	Pressure	Viscous	Internal
    Cd:	20.440074	20.353214	0.086860074	0
    Cd(f):	10.221209	10.17777	0.043438643	0
    Cd(r):	10.218866	10.175444	0.043421431	0
    Cl:	-0.0023432854	-0.0023260739	-1.7211547e-05	0
    Cl(f):	-0.0011688692	-0.001163037	-5.832274e-06	0
    Cl(r):	-0.0011744162	-0.0011630369	-1.1379273e-05	0
    CmPitch:	2.7734664e-06	-3.322261e-11	2.7734997e-06	0
    CmRoll:	0.0011716427	0.0011630369	8.6057736e-06	0
    CmYaw:	10.220037	10.176607	0.043430037	0
    Cs:	5.8838431e-19	5.9491255e-19	-6.5282429e-21	0
    Cs(f):	10.220037	10.176607	0.043430037	0
    Cs(r):	-10.220037	-10.176607	-0.043430037	0

    writing force and moment coefficient files.

Courant Number mean: 0.024244342 max: 0.31617308
Time = 0.04

PIMPLE: iteration 1
diagonal:  Solving for rho, Initial residual = 0, Final residual = 0, No Iterations 0
smoothSolver:  Solving for Ux, Initial residual = 0.0053325382, Final residual = 4.7129738e-08, No Iterations 4
smoothSolver:  Solving for Uy, Initial residual = 0.10033007, Final residual = 6.3961279e-07, No Iterations 4
smoothSolver:  Solving for e, Initial residual = 0.021728884, Final residual = 1.9662352e-07, No Iterations 4
smoothSolver:  Solving for p, Initial residual = 0.0886932, Final residual = 0.0034034426, No Iterations 3
diagonal:  Solving for rho, Initial residual = 0, Final residual = 0, No Iterations 0
time step continuity errors : sum local = 3.2597886e-06, global = -1.8613049e-07, cumulative = -3.0572377e-06
smoothSolver:  Solving for p, Initial residual = 0.0034085854, Final residual = 6.4092802e-06, No Iterations 6
diagonal:  Solving for rho, Initial residual = 0, Final residual = 0, No Iterations 0
time step continuity errors : sum local = 6.3239794e-09, global = 2.2836379e-10, cumulative = -3.0570094e-06
DILUPBiCGStab:  Solving for omega, Initial residual = 0.0030813758, Final residual = 4.8156513e-11, No Iterations 1
smoothSolver:  Solving for k, Initial residual = 0.029468049, Final residual = 2.9167127e-06, No Iterations 1
ExecutionTime = 4.86 s  ClockTime = 5 s

forceCoeffs forces write:
    Coefficient	Total	Pressure	Viscous	Internal
    Cd:	20.669821	20.585566	0.084255	0
    Cd(f):	10.335202	10.293066	0.042136569	0
    Cd(r):	10.334619	10.292501	0.042118431	0
    Cl:	-0.00058300437	-0.00056486702	-1.813735e-05	0
    Cl(f):	-0.0002888907	-0.0002824335	-6.4572023e-06	0
    Cl(r):	-0.00029411367	-0.00028243352	-1.1680147e-05	0
    CmPitch:	2.6114838e-06	1.1266157e-11	2.6114725e-06	0
    CmRoll:	0.00029150219	0.00028243351	9.0686749e-06	0
    CmYaw:	10.334911	10.292783	0.0421275	0
    Cs:	5.8760407e-19	5.9416315e-19	-6.5590785e-21	0
    Cs(f):	10.334911	10.292783	0.0421275	0
    Cs(r):	-10.334911	-10.292783	-0.0421275	0

    writing force and moment coefficient files.

Courant Number mean: 0.024179563 max: 0.3161781
Time = 0.045

PIMPLE: iteration 1
diagonal:  Solving for rho, Initial residual = 0, Final residual = 0, No Iterations 0
smoothSolver:  Solving for Ux, Initial residual = 0.0049935838, Final residual = 8.8452989e-06, No Iterations 2
smoothSolver:  Solving for Uy, Initial residual = 0.092613463, Final residual = 5.193563e-07, No Iterations 4
smoothSolver:  Solving for e, Initial residual = 0.020383439, Final residual = 1.6374064e-07, No Iterations 4
smoothSolver:  Solving for p, Initial residual = 0.086462531, Final residual = 0.003021923, No Iterations 3
diagonal:  Solving for rho, Initial residual = 0, Final residual = 0, No Iterations 0
time step continuity errors : sum local = 3.1415667e-06, global = -1.7530218e-07, cumulative = -3.2323115e-06
smoothSolver:  Solving for p, Initial residual = 0.0030361978, Final residual = 4.8967505e-06, No Iterations 6
diagonal:  Solving for rho, Initial residual = 0, Final residual = 0, No Iterations 0
time step continuity errors : sum local = 5.2115049e-09, global = 9.1506572e-11, cumulative = -3.23222e-06
DILUPBiCGStab:  Solving for omega, Initial residual = 0.0030368592, Final residual = 4.3946051e-11, No Iterations 1
smoothSolver:  Solving for k, Initial residual = 0.024349425, Final residual = 2.3681817e-06, No Iterations 1
ExecutionTime = 5.15 s  ClockTime = 5 s

forceCoeffs forces write:
    Coefficient	Total	Pressure	Viscous	Internal
    Cd:	20.27815	20.195353	0.082797097	0
    Cd(f):	10.13844	10.097032	0.041408466	0
    Cd(r):	10.13971	10.098321	0.041388631	0
    Cl:	0.0012697054	0.0012895401	-1.9834639e-05	0
    Cl(f):	0.00063708224	0.00064477008	-7.6878433e-06	0
    Cl(r):	0.0006326232	0.00064476999	-1.2146795e-05	0
    CmPitch:	2.2295194e-06	4.3356129e-11	2.2294761e-06	0
    CmRoll:	-0.00063485272	-0.00064477004	9.9173194e-06	0
    CmYaw:	10.139075	10.097677	0.041398548	0
    Cs:	5.8748338e-19	5.9403887e-19	-6.5554898e-21	0
    Cs(f):	10.139075	10.097677	0.041398548	0
    Cs(r):	-10.139075	-10.097677	-0.041398548	0

    writing force and moment coefficient files.

Courant Number mean: 0.024116056 max: 0.3161882
Time = 0.05

PIMPLE: iteration 1
diagonal:  Solving for rho, Initial residual = 0, Final residual = 0, No Iterations 0
smoothSolver:  Solving for Ux, Initial residual = 0.0046720109, Final residual = 7.5454336e-06, No Iterations 2
smoothSolver:  Solving for Uy, Initial residual = 0.085224434, Final residual = 4.2076465e-07, No Iterations 4
smoothSolver:  Solving for e, Initial residual = 0.01961937, Final residual = 1.4062595e-07, No Iterations 4
smoothSolver:  Solving for p, Initial residual = 0.082398201, Final residual = 0.0026927031, No Iterations 3
diagonal:  Solving for rho, Initial residual = 0, Final residual = 0, No Iterations 0
time step continuity errors : sum local = 3.0067351e-06, global = -1.5073888e-07, cumulative = -3.3829589e-06
smoothSolver:  Solving for p, Initial residual = 0.0028152137, Final residual = 3.8829295e-06, No Iterations 6
diagonal:  Solving for rho, Initial residual = 0, Final residual = 0, No Iterations 0
time step continuity errors : sum local = 4.4090747e-09, global = 1.770153e-11, cumulative = -3.3829412e-06
DILUPBiCGStab:  Solving for omega, Initial residual = 0.0030007251, Final residual = 3.9887761e-11, No Iterations 1
smoothSolver:  Solving for k, Initial residual = 0.020581096, Final residual = 2.0136903e-06, No Iterations 1
ExecutionTime = 5.43 s  ClockTime = 6 s

forceCoeffs forces write:
    Coefficient	Total	Pressure	Viscous	Internal
    Cd:	19.76728	19.684941	0.082338939	0
    Cd(f):	9.8828972	9.8417165	0.041180698	0
    Cd(r):	9.8843826	9.8432243	0.041158241	0
    Cl:	0.0014853472	0.0015078047	-2.2457446e-05	0
    Cl(f):	0.00074470468	0.00075390238	-9.1976981e-06	0
    Cl(r):	0.00074064254	0.00075390229	-1.3259748e-05	0
    CmPitch:	2.0310686e-06	4.3570638e-11	2.031025e-06	0
    CmRoll:	-0.00074267361	-0.00075390233	1.1228723e-05	0
    CmYaw:	9.8836399	9.8424704	0.04116947	0
    Cs:	5.8784748e-19	5.9440445e-19	-6.5569749e-21	0
    Cs(f):	9.8836399	9.8424704	0.04116947	0
    Cs(r):	-9.8836399	-9.8424704	-0.04116947	0

    writing force and moment coefficient files.

Courant Number mean: 0.024052722 max: 0.31620498
Time = 0.055

PIMPLE: iteration 1
diagonal:  Solving for rho, Initial residual = 0, Final residual = 0, No Iterations 0
smoothSolver:  Solving for Ux, Initial residual = 0.0044940646, Final residual = 6.8894132e-06, No Iterations 2
smoothSolver:  Solving for Uy, Initial residual = 0.079870084, Final residual = 3.5518646e-07, No Iterations 4
smoothSolver:  Solving for e, Initial residual = 0.018817363, Final residual = 1.2224325e-07, No Iterations 4
smoothSolver:  Solving for p, Initial residual = 0.080730314, Final residual = 0.0077805623, No Iterations 2
diagonal:  Solving for rho, Initial residual = 0, Final residual = 0, No Iterations 0
time step continuity errors : sum local = 9.2349159e-06, global = -2.9131895e-07, cumulative = -3.6742602e-06
smoothSolver:  Solving for p, Initial residual = 0.00766783, Final residual = 9.0228637e-06, No Iterations 6
diagonal:  Solving for rho, Initial residual = 0, Final residual = 0, No Iterations 0
time step continuity errors : sum local = 1.0817281e-08, global = -2.603894e-11, cumulative = -3.6742862e-06
DILUPBiCGStab:  Solving for omega, Initial residual = 0.0029720939, Final residual = 3.6461754e-11, No Iterations 1
smoothSolver:  Solving for k, Initial residual = 0.017707849, Final residual = 1.8077512e-06, No Iterations 1
ExecutionTime = 5.71 s  ClockTime = 6 s

forceCoeffs forces write:
    Coefficient	Total	Pressure	Viscous	Internal
    Cd:	19.523158	19.441145	0.082012927	0
    Cd(f):	9.7614595	9.7204417	0.041017819	0
    Cd(r):	9.7616981	9.7207029	0.040995108	0
    Cl:	0.00023853571	0.00026124698	-2.2711264e-05	0
    Cl(f):	0.00012132501	0.00013062351	-9.2984997e-06	0
    Cl(r):	0.0001172107	0.00013062346	-1.3412764e-05	0
    CmPitch:	2.0571587e-06	2.6474443e-11	2.0571323e-06	0
    CmRoll:	-0.00011926786	-0.00013062349	1.1355632e-05	0
    CmYaw:	9.7615788	9.7205723	0.041006463	0
    Cs:	5.8831231e-19	5.9488012e-19	-6.5678088e-21	0
    Cs(f):	9.7615788	9.7205723	0.041006463	0
    Cs(r):	-9.7615788	-9.7205723	-0.041006463	0

    writing force and moment coefficient files.

Courant Number mean: 0.023990345 max: 0.31622042
Time = 0.06

PIMPLE: iteration 1
diagonal:  Solving for rho, Initial residual = 0, Final residual = 0, No Iterations 0
smoothSolver:  Solving for Ux, Initial residual = 0.0043284049, Final residual = 6.3780755e-06, No Iterations 2
smoothSolver:  Solving for Uy, Initial residual = 0.07475927, Final residual = 2.998394e-07, No Iterations 4
smoothSolver:  Solving for e, Initial residual = 0.018204633, Final residual = 1.0283318e-07, No Iterations 4
smoothSolver:  Solving for p, Initial residual = 0.078597501, Final residual = 0.0072592099, No Iterations 2
diagonal:  Solving for rho, Initial residual = 0, Final residual = 0, No Iterations 0
time step continuity errors : sum local = 9.1021436e-06, global = -2.6306984e-07, cumulative = -3.937356e-06
smoothSolver:  Solving for p, Initial residual = 0.0071216401, Final residual = 7.41258e-06, No Iterations 6
diagonal:  Solving for rho, Initial residual = 0, Final residual = 0, No Iterations 0
time step continuity errors : sum local = 9.3764878e-09, global = -1.4786696e-10, cumulative = -3.9375039e-06
DILUPBiCGStab:  Solving for omega, Initial residual = 0.0029417325, Final residual = 3.2923764e-11, No Iterations 1
smoothSolver:  Solving for k, Initial residual = 0.015450614, Final residual = 1.585357e-06, No Iterations 1
ExecutionTime = 5.99 s  ClockTime = 6 s

forceCoeffs forces write:
    Coefficient	Total	Pressure	Viscous	Internal
    Cd:	19.467942	19.386544	0.081398526	0
    Cd(f):	9.7343019	9.6935919	0.040710025	0
    Cd(r):	9.7336404	9.6929519	0.040688501	0
    Cl:	-0.00066150096	-0.00063997619	-2.1524771e-05	0
    Cl(f):	-0.00032852941	-0.00031998809	-8.5413196e-06	0
    Cl(r):	-0.00033297155	-0.0003199881	-1.2983452e-05	0
    CmPitch:	2.2210729e-06	6.8804259e-12	2.2210661e-06	0
    CmRoll:	0.00033075048	0.00031998809	1.0762386e-05	0
    CmYaw:	9.7339712	9.6932719	0.040699263	0
    Cs:	5.8857949e-19	5.951538e-19	-6.5743066e-21	0
    Cs(f):	9.7339712	9.6932719	0.040699263	0
    Cs(r):	-9.7339712	-9.6932719	-0.040699263	0

    writing force and moment coefficient files.

Courant Number mean: 0.02392912 max: 0.3161829
Time = 0.065

PIMPLE: iteration 1
diagonal:  Solving for rho, Initial residual = 0, Final residual = 0, No Iterations 0
smoothSolver:  Solving for Ux, Initial residual = 0.0041899737, Final residual = 5.7545921e-06, No Iterations 2
smoothSolver:  Solving for Uy, Initial residual = 0.070718123, Final residual = 2.4238741e-07, No Iterations 4
smoothSolver:  Solving for e, Initial residual = 0.017705652, Final residual = 8.486607e-08, No Iterations 4
smoothSolver:  Solving for p, Initial residual = 0.07689288, Final residual = 0.0067436011, No Iterations 2
diagonal:  Solving for rho, Initial residual = 0, Final residual = 0, No Iterations 0
time step continuity errors : sum local = 8.893062e-06, global = -2.4320298e-07, cumulative = -4.1807069e-06
smoothSolver:  Solving for p, Initial residual = 0.0066418805, Final residual = 6.1008809e-06, No Iterations 6
diagonal:  Solving for rho, Initial residual = 0, Final residual = 0, No Iterations 0
time step continuity errors : sum local = 8.0961527e-09, global = -2.7739085e-10, cumulative = -4.1809843e-06
DILUPBiCGStab:  Solving for omega, Initial residual = 0.0029088566, Final residual = 3.0198775e-11, No Iterations 1
smoothSolver:  Solving for k, Initial residual = 0.013647876, Final residual = 1.4072356e-06, No Iterations 1
ExecutionTime = 6.27 s  ClockTime = 6 s

forceCoeffs forces write:
    Coefficient	Total	Pressure	Viscous	Internal
    Cd:	19.436312	19.355652	0.080659875	0
    Cd(f):	9.7185319	9.6781916	0.04034038	0
    Cd(r):	9.7177796	9.6774601	0.040319495	0
    Cl:	-0.00075229877	-0.00073141379	-2.0884982e-05	0
    Cl(f):	-0.00037381241	-0.0003657069	-8.1055089e-06	0
    Cl(r):	-0.00037848636	-0.00036570688	-1.2779473e-05	0
    CmPitch:	2.3369725e-06	-9.7647714e-12	2.3369823e-06	0
    CmRoll:	0.00037614938	0.00036570689	1.0442491e-05	0
    CmYaw:	9.7181558	9.6778259	0.040329938	0
    Cs:	5.8858154e-19	5.9516414e-19	-6.5825942e-21	0
    Cs(f):	9.7181558	9.6778259	0.040329938	0
    Cs(r):	-9.7181558	-9.6778259	-0.040329938	0

    writing force and moment coefficient files.

Courant Number mean: 0.023869075 max: 0.31594095
Time = 0.07

PIMPLE: iteration 1
diagonal:  Solving for rho, Initial residual = 0, Final residual = 0, No Iterations 0
smoothSolver:  Solving for Ux, Initial residual = 0.0040732887, Final residual = 4.9430591e-06, No Iterations 2
smoothSolver:  Solving for Uy, Initial residual = 0.067304227, Final residual = 1.823257e-07, No Iterations 4
smoothSolver:  Solving for e, Initial residual = 0.017297742, Final residual = 6.7372941e-08, No Iterations 4
smoothSolver:  Solving for p, Initial residual = 0.07550891, Final residual = 0.0063177328, No Iterations 2
diagonal:  Solving for rho, Initial residual = 0, Final residual = 0, No Iterations 0
time step continuity errors : sum local = 8.7177694e-06, global = -2.1327393e-07, cumulative = -4.3942582e-06
smoothSolver:  Solving for p, Initial residual = 0.00628622, Final residual = 5.0996609e-06, No Iterations 6
diagonal:  Solving for rho, Initial residual = 0, Final residual = 0, No Iterations 0
time step continuity errors : sum local = 7.0505258e-09, global = -4.0401757e-10, cumulative = -4.3946622e-06
DILUPBiCGStab:  Solving for omega, Initial residual = 0.0028768559, Final residual = 2.7858026e-11, No Iterations 1
smoothSolver:  Solving for k, Initial residual = 0.012186215, Final residual = 1.2844595e-06, No Iterations 1
ExecutionTime = 6.56 s  ClockTime = 7 s

forceCoeffs forces write:
    Coefficient	Total	Pressure	Viscous	Internal
    Cd:	19.34711	19.267068	0.080042217	0
    Cd(f):	9.6736355	9.633604	0.040031512	0
    Cd(r):	9.6734748	9.6334641	0.040010705	0
    Cl:	-0.00016068289	-0.000139876	-2.0806889e-05	0
    Cl(f):	-7.7939108e-05	-6.9938018e-05	-8.0010893e-06	0
    Cl(r):	-8.2743782e-05	-6.9937982e-05	-1.28058e-05	0
    CmPitch:	2.4023374e-06	-1.8004362e-11	2.4023554e-06	0
    CmRoll:	8.0341445e-05	6.9938e-05	1.0403445e-05	0
    CmYaw:	9.6735551	9.633534	0.040021108	0
    Cs:	5.8844006e-19	5.9502966e-19	-6.5895999e-21	0
    Cs(f):	9.6735551	9.633534	0.040021108	0
    Cs(r):	-9.6735551	-9.633534	-0.040021108	0

    writing force and moment coefficient files.

Courant Number mean: 0.023809479 max: 0.31505532
Time = 0.075

PIMPLE: iteration 1
diagonal:  Solving for rho, Initial residual = 0, Final residual = 0, No Iterations 0
smoothSolver:  Solving for Ux, Initial residual = 0.0039966863, Final residual = 4.473043e-06, No Iterations 2
smoothSolver:  Solving for Uy, Initial residual = 0.064178046, Final residual = 1.3939969e-07, No Iterations 4
smoothSolver:  Solving for e, Initial residual = 0.016961167, Final residual = 5.1720639e-08, No Iterations 4
smoothSolver:  Solving for p, Initial residual = 0.075120674, Final residual = 0.005962333, No Iterations 2
diagonal:  Solving for rho, Initial residual = 0, Final residual = 0, No Iterations 0
time step continuity errors : sum local = 8.550616e-06, global = -1.7189604e-07, cumulative = -4.5665583e-06
smoothSolver:  Solving for p, Initial residual = 0.0059447068, Final residual = 4.3848353e-06, No Iterations 6
diagonal:  Solving for rho, Initial residual = 0, Final residual = 0, No Iterations 0
time step continuity errors : sum local = 6.2591574e-09, global = -5.3696155e-10, cumulative = -4.5670952e-06
DILUPBiCGStab:  Solving for omega, Initial residual = 0.002847242, Final residual = 2.5993541e-11, No Iterations 1
smoothSolver:  Solving for k, Initial residual = 0.010982369, Final residual = 1.16865e-06, No Iterations 1
ExecutionTime = 6.84 s  ClockTime = 7 s

forceCoeffs forces write:
    Coefficient	Total	Pressure	Viscous	Internal
    Cd:	19.213015	19.133404	0.079610507	0
    Cd(f):	9.6062179	9.5664021	0.039815781	0
    Cd(r):	9.6067967	9.5670019	0.039794726	0
    Cl:	0.00057878463	0.00059983982	-2.1055193e-05	0
    Cl(f):	0.00029180722	0.0002999199	-8.1126777e-06	0
    Cl(r):	0.00028697741	0.00029991993	-1.2942515e-05	0
    CmPitch:	2.4149058e-06	-1.3082611e-11	2.4149188e-06	0
    CmRoll:	-0.00028939232	-0.00029991991	1.0527597e-05	0
    CmYaw:	9.6065073	9.566702	0.039805253	0
    Cs:	5.8820551e-19	5.9479856e-19	-6.5930483e-21	0
    Cs(f):	9.6065073	9.566702	0.039805253	0
    Cs(r):	-9.6065073	-9.566702	-0.039805253	0

    writing force and moment coefficient files.

Courant Number mean: 0.023752033 max: 0.31247106
Time = 0.08

PIMPLE: iteration 1
diagonal:  Solving for rho, Initial residual = 0, Final residual = 0, No Iterations 0
smoothSolver:  Solving for Ux, Initial residual = 0.0039197041, Final residual = 4.0403918e-06, No Iterations 2
smoothSolver:  Solving for Uy, Initial residual = 0.061020519, Final residual = 1.0821862e-07, No Iterations 4
smoothSolver:  Solving for e, Initial residual = 0.016612434, Final residual = 3.7768009e-08, No Iterations 4
smoothSolver:  Solving for p, Initial residual = 0.074955698, Final residual = 0.0056206848, No Iterations 2
diagonal:  Solving for rho, Initial residual = 0, Final residual = 0, No Iterations 0
time step continuity errors : sum local = 8.304456e-06, global = -9.9454075e-08, cumulative = -4.6665493e-06
smoothSolver:  Solving for p, Initial residual = 0.0052321483, Final residual = 3.610866e-06, No Iterations 6
diagonal:  Solving for rho, Initial residual = 0, Final residual = 0, No Iterations 0
time step continuity errors : sum local = 5.705665e-09, global = -6.1439335e-10, cumulative = -4.6671637e-06
DILUPBiCGStab:  Solving for omega, Initial residual = 0.0028197103, Final residual = 2.4105172e-11, No Iterations 1
smoothSolver:  Solving for k, Initial residual = 0.0099795407, Final residual = 1.0604481e-06, No Iterations 1
ExecutionTime = 7.12 s  ClockTime = 7 s

forceCoeffs forces write:
    Coefficient	Total	Pressure	Viscous	Internal
    Cd:	19.076354	18.997063	0.07929079	0
    Cd(f):	9.5377636	9.4981076	0.039655955	0
    Cd(r):	9.53859	9.4989551	0.039634835	0
    Cl:	0.000826425	0.00084754468	-2.1119685e-05	0
    Cl(f):	0.00041562817	0.00042377235	-8.1441719e-06	0
    Cl(r):	0.00041079682	0.00042377234	-1.2975514e-05	0
    CmPitch:	2.4156755e-06	4.6423701e-12	2.4156708e-06	0
    CmRoll:	-0.0004132125	-0.00042377234	1.0559843e-05	0
    CmYaw:	9.5381768	9.4985314	0.039645395	0
    Cs:	5.8791062e-19	5.945111e-19	-6.6004784e-21	0
    Cs(f):	9.5381768	9.4985314	0.039645395	0
    Cs(r):	-9.5381768	-9.4985314	-0.039645395	0

    writing force and moment coefficient files.

Courant Number mean: 0.023696986 max: 0.30599175
Time = 0.085

PIMPLE: iteration 1
diagonal:  Solving for rho, Initial residual = 0, Final residual = 0, No Iterations 0
smoothSolver:  Solving for Ux, Initial residual = 0.0038625986, Final residual = 3.3496803e-06, No Iterations 2
smoothSolver:  Solving for Uy, Initial residual = 0.058264184, Final residual = 7.6032616e-08, No Iterations 4
smoothSolver:  Solving for e, Initial residual = 0.016464349, Final residual = 2.9895218e-08, No Iterations 4
smoothSolver:  Solving for p, Initial residual = 0.069387088, Final residual = 0.0049585734, No Iterations 2
diagonal:  Solving for rho, Initial residual = 0, Final residual = 0, No Iterations 0
time step continuity errors : sum local = 8.0963763e-06, global = 1.1914705e-08, cumulative = -4.655249e-06
smoothSolver:  Solving for p, Initial residual = 0.0046591667, Final residual = 9.7099167e-06, No Iterations 5
diagonal:  Solving for rho, Initial residual = 0, Final residual = 0, No Iterations 0
time step continuity errors : sum local = 1.6994037e-08, global = -1.057664e-09, cumulative = -4.6563067e-06
DILUPBiCGStab:  Solving for omega, Initial residual = 0.0027921798, Final residual = 2.2045255e-11, No Iterations 1
smoothSolver:  Solving for k, Initial residual = 0.0091306463, Final residual = 9.848197e-07, No Iterations 1
ExecutionTime = 7.39 s  ClockTime = 8 s

forceCoeffs forces write:
    Coefficient	Total	Pressure	Viscous	Internal
    Cd:	18.956614	18.877615	0.078999317	0
    Cd(f):	9.4780159	9.4385058	0.039510169	0
    Cd(r):	9.4785982	9.439109	0.039489148	0
    Cl:	0.0005822433	0.00060326358	-2.1020276e-05	0
    Cl(f):	0.00029357897	0.00030163181	-8.0528424e-06	0
    Cl(r):	0.00028866433	0.00030163176	-1.2967434e-05	0
    CmPitch:	2.4573217e-06	2.5917259e-11	2.4572957e-06	0
    CmRoll:	-0.00029112165	-0.00030163179	1.0510138e-05	0
    CmYaw:	9.4783071	9.4388074	0.039499658	0
    Cs:	5.8770181e-19	5.943086e-19	-6.6067832e-21	0
    Cs(f):	9.4783071	9.4388074	0.039499658	0
    Cs(r):	-9.4783071	-9.4388074	-0.039499658	0

    writing force and moment coefficient files.

Courant Number mean: 0.023643941 max: 0.29197409
Time = 0.09

PIMPLE: iteration 1
diagonal:  Solving for rho, Initial residual = 0, Final residual = 0, No Iterations 0
smoothSolver:  Solving for Ux, Initial residual = 0.0038231073, Final residual = 3.1344622e-06, No Iterations 2
smoothSolver:  Solving for Uy, Initial residual = 0.055766329, Final residual = 6.2734773e-08, No Iterations 4
smoothSolver:  Solving for e, Initial residual = 0.016315872, Final residual = 2.4093706e-08, No Iterations 4
smoothSolver:  Solving for p, Initial residual = 0.064949423, Final residual = 0.0043376573, No Iterations 2
diagonal:  Solving for rho, Initial residual = 0, Final residual = 0, No Iterations 0
time step continuity errors : sum local = 7.8308392e-06, global = 1.2818322e-07, cumulative = -4.5281234e-06
smoothSolver:  Solving for p, Initial residual = 0.0041219862, Final residual = 8.453427e-06, No Iterations 5
diagonal:  Solving for rho, Initial residual = 0, Final residual = 0, No Iterations 0
time step continuity errors : sum local = 1.6325966e-08, global = -8.7061593e-10, cumulative = -4.528994e-06
DILUPBiCGStab:  Solving for omega, Initial residual = 0.0027642775, Final residual = 1.9181134e-11, No Iterations 1
smoothSolver:  Solving for k, Initial residual = 0.0084054079, Final residual = 9.0657216e-07, No Iterations 1
ExecutionTime = 7.67 s  ClockTime = 8 s

forceCoeffs forces write:
    Coefficient	Total	Pressure	Viscous	Internal
    Cd:	18.846241	18.767529	0.078711136	0
    Cd(f):	9.4230493	9.3836834	0.03936594	0
    Cd(r):	9.4231912	9.383846	0.039345196	0
    Cl:	0.00014185843	0.00016260226	-2.0743831e-05	0
    Cl(f):	7.3434643e-05	8.130117e-05	-7.8665275e-06	0
    Cl(r):	6.842379e-05	8.1301094e-05	-1.2877304e-05	0
    CmPitch:	2.5054263e-06	3.8229262e-11	2.5053881e-06	0
    CmRoll:	-7.0929216e-05	-8.1301132e-05	1.0371916e-05	0
    CmYaw:	9.4231203	9.3837647	0.039355568	0
    Cs:	5.8764811e-19	5.9425152e-19	-6.6034085e-21	0
    Cs(f):	9.4231203	9.3837647	0.039355568	0
    Cs(r):	-9.4231203	-9.3837647	-0.039355568	0

    writing force and moment coefficient files.

Courant Number mean: 0.023595138 max: 0.27765287
Time = 0.095

PIMPLE: iteration 1
diagonal:  Solving for rho, Initial residual = 0, Final residual = 0, No Iterations 0
smoothSolver:  Solving for Ux, Initial residual = 0.0038006024, Final residual = 2.8528854e-06, No Iterations 2
smoothSolver:  Solving for Uy, Initial residual = 0.053044357, Final residual = 5.5444037e-08, No Iterations 4
smoothSolver:  Solving for e, Initial residual = 0.016291091, Final residual = 1.7926446e-08, No Iterations 4
smoothSolver:  Solving for p, Initial residual = 0.060001085, Final residual = 0.0037493479, No Iterations 2
diagonal:  Solving for rho, Initial residual = 0, Final residual = 0, No Iterations 0
time step continuity errors : sum local = 7.4551644e-06, global = 2.4249416e-07, cumulative = -4.2864999e-06
smoothSolver:  Solving for p, Initial residual = 0.0036281454, Final residual = 7.4691078e-06, No Iterations 5
diagonal:  Solving for rho, Initial residual = 0, Final residual = 0, No Iterations 0
time step continuity errors : sum local = 1.5773882e-08, global = -4.1685819e-10, cumulative = -4.2869167e-06
DILUPBiCGStab:  Solving for omega, Initial residual = 0.0027370296, Final residual = 1.6756985e-11, No Iterations 1
smoothSolver:  Solving for k, Initial residual = 0.0077815411, Final residual = 8.2287348e-07, No Iterations 1
ExecutionTime = 7.95 s  ClockTime = 8 s

forceCoeffs forces write:
    Coefficient	Total	Pressure	Viscous	Internal
    Cd:	18.729791	18.651347	0.078443957	0
    Cd(f):	9.3648762	9.3256442	0.039232045	0
    Cd(r):	9.3649147	9.3257028	0.039211912	0
    Cl:	3.8525372e-05	5.865811e-05	-2.0132738e-05	0
    Cl(f):	2.179458e-05	2.932909e-05	-7.5345096e-06	0
    Cl(r):	1.6730792e-05	2.932902e-05	-1.2598229e-05	0
    CmPitch:	2.5318942e-06	3.4680099e-11	2.5318595e-06	0
    CmRoll:	-1.9262686e-05	-2.9329055e-05	1.0066369e-05	0
    CmYaw:	9.3648955	9.3256735	0.039221979	0
    Cs:	5.8764973e-19	5.9424345e-19	-6.5937162e-21	0
    Cs(f):	9.3648955	9.3256735	0.039221979	0
    Cs(r):	-9.3648955	-9.3256735	-0.039221979	0

    writing force and moment coefficient files.

Courant Number mean: 0.023550597 max: 0.26495444
Time = 0.1

PIMPLE: iteration 1
diagonal:  Solving for rho, Initial residual = 0, Final residual = 0, No Iterations 0
smoothSolver:  Solving for Ux, Initial residual = 0.0038016797, Final residual = 2.4887546e-06, No Iterations 2
smoothSolver:  Solving for Uy, Initial residual = 0.051026212, Final residual = 5.0236141e-08, No Iterations 4
smoothSolver:  Solving for e, Initial residual = 0.016231804, Final residual = 1.7507537e-08, No Iterations 4
smoothSolver:  Solving for p, Initial residual = 0.056799389, Final residual = 0.0032219112, No Iterations 2
diagonal:  Solving for rho, Initial residual = 0, Final residual = 0, No Iterations 0
time step continuity errors : sum local = 6.9927221e-06, global = 2.9996182e-07, cumulative = -3.9869549e-06
smoothSolver:  Solving for p, Initial residual = 0.0032241197, Final residual = 6.6467518e-06, No Iterations 5
diagonal:  Solving for rho, Initial residual = 0, Final residual = 0, No Iterations 0
time step continuity errors : sum local = 1.5114977e-08, global = 1.1878088e-10, cumulative = -3.9868361e-06
DILUPBiCGStab:  Solving for omega, Initial residual = 0.0027109548, Final residual = 1.4908518e-11, No Iterations 1
smoothSolver:  Solving for k, Initial residual = 0.0072411064, Final residual = 7.5375891e-07, No Iterations 1
ExecutionTime = 8.22 s  ClockTime = 8 s

forceCoeffs forces write:
    Coefficient	Total	Pressure	Viscous	Internal
    Cd:	18.593534	18.515319	0.078215221	0
    Cd(f):	9.2966267	9.2575095	0.03911723	0
    Cd(r):	9.2969076	9.2578096	0.039097991	0
    Cl:	0.00028088918	0.00030012811	-1.9238932e-05	0
    Cl(f):	0.00014295226	0.00015006408	-7.1118174e-06	0
    Cl(r):	0.00013793692	0.00015006404	-1.2127115e-05	0
    CmPitch:	2.507667e-06	1.8196707e-11	2.5076488e-06	0
    CmRoll:	-0.00014044459	-0.00015006406	9.6194662e-06	0
    CmYaw:	9.2967672	9.2576596	0.03910761	0
    Cs:	5.8754668e-19	5.9412662e-19	-6.5799447e-21	0
    Cs(f):	9.2967672	9.2576596	0.03910761	0
    Cs(r):	-9.2967672	-9.2576596	-0.03910761	0

    writing force and moment coefficient files.

Courant Number mean: 0.023510161 max: 0.25362487
Time = 0.105

PIMPLE: iteration 1
diagonal:  Solving for rho, Initial residual = 0, Final residual = 0, No Iterations 0
smoothSolver:  Solving for Ux, Initial residual = 0.003795644, Final residual = 2.4544439e-06, No Iterations 2
smoothSolver:  Solving for Uy, Initial residual = 0.048735978, Final residual = 5.7016215e-08, No Iterations 4
smoothSolver:  Solving for e, Initial residual = 0.016264973, Final residual = 1.8120192e-08, No Iterations 4
smoothSolver:  Solving for p, Initial residual = 0.054164985, Final residual = 0.0027603502, No Iterations 2
diagonal:  Solving for rho, Initial residual = 0, Final residual = 0, No Iterations 0
time step continuity errors : sum local = 6.4360868e-06, global = 2.3981315e-07, cumulative = -3.747023e-06
smoothSolver:  Solving for p, Initial residual = 0.00282987, Final residual = 5.7446165e-06, No Iterations 5
diagonal:  Solving for rho, Initial residual = 0, Final residual = 0, No Iterations 0
time step continuity errors : sum local = 1.377102e-08, global = 2.80741e-10, cumulative = -3.7467423e-06
DILUPBiCGStab:  Solving for omega, Initial residual = 0.0026856219, Final residual = 1.3945879e-11, No Iterations 1
smoothSolver:  Solving for k, Initial residual = 0.0067695687, Final residual = 6.9832224e-07, No Iterations 1
ExecutionTime = 8.5 s  ClockTime = 9 s

forceCoeffs forces write:
    Coefficient	Total	Pressure	Viscous	Internal
    Cd:	18.435583	18.357542	0.078041215	0
    Cd(f):	9.2175486	9.1785187	0.039029883	0
    Cd(r):	9.2180347	9.1790233	0.039011332	0
    Cl:	0.000486067	0.00050461741	-1.855041e-05	0
    Cl(f):	0.00024552518	0.0002523087	-6.7835199e-06	0
    Cl(r):	0.00024054182	0.00025230871	-1.176689e-05	0
    CmPitch:	2.4916843e-06	-6.5802152e-13	2.4916849e-06	0
    CmRoll:	-0.0002430335	-0.0002523087	9.2752049e-06	0
    CmYaw:	9.2177916	9.178771	0.039020608	0
    Cs:	5.8725407e-19	5.938122e-19	-6.5581363e-21	0
    Cs(f):	9.2177916	9.178771	0.039020608	0
    Cs(r):	-9.2177916	-9.178771	-0.039020608	0

    writing force and moment coefficient files.

Courant Number mean: 0.023474655 max: 0.24407278
Time = 0.11

PIMPLE: iteration 1
diagonal:  Solving for rho, Initial residual = 0, Final residual = 0, No Iterations 0
smoothSolver:  Solving for Ux, Initial residual = 0.0038268941, Final residual = 2.2052184e-06, No Iterations 2
smoothSolver:  Solving for Uy, Initial residual = 0.047016062, Final residual = 5.4060158e-08, No Iterations 4
smoothSolver:  Solving for e, Initial residual = 0.016248331, Final residual = 1.7048422e-08, No Iterations 4
smoothSolver:  Solving for p, Initial residual = 0.052861351, Final residual = 0.0023380297, No Iterations 2
diagonal:  Solving for rho, Initial residual = 0, Final residual = 0, No Iterations 0
time step continuity errors : sum local = 5.7287054e-06, global = 5.737126e-08, cumulative = -3.689371e-06
smoothSolver:  Solving for p, Initial residual = 0.0024977238, Final residual = 4.7233744e-06, No Iterations 5
diagonal:  Solving for rho, Initial residual = 0, Final residual = 0, No Iterations 0
time step continuity errors : sum local = 1.1654593e-08, global = -8.3377353e-11, cumulative = -3.6894544e-06
DILUPBiCGStab:  Solving for omega, Initial residual = 0.0026607341, Final residual = 1.2786326e-11, No Iterations 1
smoothSolver:  Solving for k, Initial residual = 0.0063543536, Final residual = 6.4846968e-07, No Iterations 1
ExecutionTime = 8.78 s  ClockTime = 9 s

forceCoeffs forces write:
    Coefficient	Total	Pressure	Viscous	Internal
    Cd:	18.276386	18.198462	0.077923777	0
    Cd(f):	9.1379843	9.099013	0.038971288	0
    Cd(r):	9.1384018	9.0994494	0.038952488	0
    Cl:	0.00041757457	0.00043637465	-1.8800077e-05	0
    Cl(f):	0.00021132067	0.00021818731	-6.8666437e-06	0
    Cl(r):	0.0002062539	0.00021818734	-1.1933434e-05	0
    CmPitch:	2.5333837e-06	-1.1211926e-11	2.5333949e-06	0
    CmRoll:	-0.00020878729	-0.00021818733	9.4000386e-06	0
    CmYaw:	9.1381931	9.0992312	0.038961888	0
    Cs:	5.8676753e-19	5.9333764e-19	-6.5701062e-21	0
    Cs(f):	9.1381931	9.0992312	0.038961888	0
    Cs(r):	-9.1381931	-9.0992312	-0.038961888	0

    writing force and moment coefficient files.

Courant Number mean: 0.023442266 max: 0.24953724
Time = 0.115

PIMPLE: iteration 1
diagonal:  Solving for rho, Initial residual = 0, Final residual = 0, No Iterations 0
smoothSolver:  Solving for Ux, Initial residual = 0.0038592148, Final residual = 2.1725462e-06, No Iterations 2
smoothSolver:  Solving for Uy, Initial residual = 0.045539026, Final residual = 5.433006e-08, No Iterations 4
smoothSolver:  Solving for e, Initial residual = 0.016157624, Final residual = 1.6368536e-08, No Iterations 4
smoothSolver:  Solving for p, Initial residual = 0.05297252, Final residual = 0.0020535788, No Iterations 2
diagonal:  Solving for rho, Initial residual = 0, Final residual = 0, No Iterations 0
time step continuity errors : sum local = 5.1610924e-06, global = -2.0559938e-07, cumulative = -3.8950537e-06
smoothSolver:  Solving for p, Initial residual = 0.0022720293, Final residual = 4.0091822e-06, No Iterations 5
diagonal:  Solving for rho, Initial residual = 0, Final residual = 0, No Iterations 0
time step continuity errors : sum local = 9.965254e-09, global = -7.3681064e-10, cumulative = -3.8957906e-06
DILUPBiCGStab:  Solving for omega, Initial residual = 0.0026366413, Final residual = 1.2233841e-11, No Iterations 1
smoothSolver:  Solving for k, Initial residual = 0.0059881278, Final residual = 6.0897754e-07, No Iterations 1
ExecutionTime = 9.06 s  ClockTime = 9 s

forceCoeffs forces write:
    Coefficient	Total	Pressure	Viscous	Internal
    Cd:	18.141207	18.063373	0.077833335	0
    Cd(f):	9.070664	9.0317374	0.038926649	0
    Cd(r):	9.0705425	9.0316358	0.038906686	0
    Cl:	-0.00012155686	-0.0001015935	-1.9963369e-05	0
    Cl(f):	-5.8145538e-05	-5.0796757e-05	-7.3487816e-06	0
    Cl(r):	-6.3411326e-05	-5.0796739e-05	-1.2614587e-05	0
    CmPitch:	2.6328938e-06	-8.8873227e-12	2.6329027e-06	0
    CmRoll:	6.0778432e-05	5.0796748e-05	9.9816843e-06	0
    CmYaw:	9.0706033	9.0316866	0.038916668	0
    Cs:	5.8628441e-19	5.9286255e-19	-6.5781373e-21	0
    Cs(f):	9.0706033	9.0316866	0.038916668	0
    Cs(r):	-9.0706033	-9.0316866	-0.038916668	0

    writing force and moment coefficient files.

Courant Number mean: 0.023410884 max: 0.25521213
Time = 0.12

PIMPLE: iteration 1
diagonal:  Solving for rho, Initial residual = 0, Final residual = 0, No Iterations 0
smoothSolver:  Solving for Ux, Initial residual = 0.0038867788, Final residual = 2.1573851e-06, No Iterations 2
smoothSolver:  Solving for Uy, Initial residual = 0.044135172, Final residual = 5.3766353e-08, No Iterations 4
smoothSolver:  Solving for e, Initial residual = 0.016040176, Final residual = 1.6177631e-08, No Iterations 4
smoothSolver:  Solving for p, Initial residual = 0.054424969, Final residual = 0.0020330801, No Iterations 2
diagonal:  Solving for rho, Initial residual = 0, Final residual = 0, No Iterations 0
time step continuity errors : sum local = 5.1299427e-06, global = -4.3083654e-07, cumulative = -4.3266271e-06
smoothSolver:  Solving for p, Initial residual = 0.0023444623, Final residual = 4.1616134e-06, No Iterations 5
diagonal:  Solving for rho, Initial residual = 0, Final residual = 0, No Iterations 0
time step continuity errors : sum local = 1.0271915e-08, global = -1.3505386e-09, cumulative = -4.3279776e-06
DILUPBiCGStab:  Solving for omega, Initial residual = 0.0026114519, Final residual = 1.1920375e-11, No Iterations 1
smoothSolver:  Solving for k, Initial residual = 0.0056580757, Final residual = 5.7097482e-07, No Iterations 1
ExecutionTime = 9.34 s  ClockTime = 10 s

forceCoeffs forces write:
    Coefficient	Total	Pressure	Viscous	Internal
    Cd:	18.037698	17.959958	0.077740565	0
    Cd(f):	9.019277	8.9803964	0.038880579	0
    Cd(r):	9.0184211	8.9795611	0.038859985	0
    Cl:	-0.00085585493	-0.00083526112	-2.0593811e-05	0
    Cl(f):	-0.00042514979	-0.00041763056	-7.519235e-06	0
    Cl(r):	-0.00043070514	-0.00041763056	-1.3074576e-05	0
    CmPitch:	2.7776745e-06	4.0273759e-12	2.7776705e-06	0
    CmRoll:	0.00042792747	0.00041763056	1.0296905e-05	0
    CmYaw:	9.018849	8.9799788	0.038870282	0
    Cs:	5.8590161e-19	5.9249745e-19	-6.5958351e-21	0
    Cs(f):	9.018849	8.9799788	0.038870282	0
    Cs(r):	-9.018849	-8.9799788	-0.038870282	0

    writing force and moment coefficient files.

Courant Number mean: 0.023380591 max: 0.25832231
Time = 0.125

PIMPLE: iteration 1
diagonal:  Solving for rho, Initial residual = 0, Final residual = 0, No Iterations 0
smoothSolver:  Solving for Ux, Initial residual = 0.0038854183, Final residual = 2.0699609e-06, No Iterations 2
smoothSolver:  Solving for Uy, Initial residual = 0.042731051, Final residual = 5.1571067e-08, No Iterations 4
smoothSolver:  Solving for e, Initial residual = 0.015773919, Final residual = 9.7918196e-06, No Iterations 2
smoothSolver:  Solving for p, Initial residual = 0.055822269, Final residual = 0.0020393859, No Iterations 2
diagonal:  Solving for rho, Initial residual = 0, Final residual = 0, No Iterations 0
time step continuity errors : sum local = 5.0978068e-06, global = -4.8275543e-07, cumulative = -4.8107331e-06
smoothSolver:  Solving for p, Initial residual = 0.0023934238, Final residual = 4.8654643e-06, No Iterations 5
diagonal:  Solving for rho, Initial residual = 0, Final residual = 0, No Iterations 0
time step continuity errors : sum local = 1.1868607e-08, global = -1.7195495e-09, cumulative = -4.8124526e-06
DILUPBiCGStab:  Solving for omega, Initial residual = 0.0025867122, Final residual = 1.1650102e-11, No Iterations 1
smoothSolver:  Solving for k, Initial residual = 0.0053629438, Final residual = 5.416976e-07, No Iterations 1
ExecutionTime = 9.61 s  ClockTime = 10 s

forceCoeffs forces write:
    Coefficient	Total	Pressure	Viscous	Internal
    Cd:	17.951702	17.874063	0.077638911	0
    Cd(f):	8.9763545	8.937525	0.038829535	0
    Cd(r):	8.9753479	8.9365385	0.038809375	0
    Cl:	-0.0010066088	-0.00098644841	-2.0160403e-05	0
    Cl(f):	-0.00050040411	-0.00049322418	-7.1799309e-06	0
    Cl(r):	-0.0005062047	-0.00049322422	-1.2980472e-05	0
    CmPitch:	2.900291e-06	2.054033e-11	2.9002704e-06	0
    CmRoll:	0.00050330441	0.0004932242	1.0080201e-05	0
    CmYaw:	8.9758512	8.9370317	0.038819455	0
    Cs:	5.8567195e-19	5.9227379e-19	-6.6018309e-21	0
    Cs(f):	8.9758512	8.9370317	0.038819455	0
    Cs(r):	-8.9758512	-8.9370317	-0.038819455	0

    writing force and moment coefficient files.

Courant Number mean: 0.023353671 max: 0.25622045
Time = 0.13

PIMPLE: iteration 1
diagonal:  Solving for rho, Initial residual = 0, Final residual = 0, No Iterations 0
smoothSolver:  Solving for Ux, Initial residual = 0.0039500201, Final residual = 2.1277359e-06, No Iterations 2
smoothSolver:  Solving for Uy, Initial residual = 0.041919997, Final residual = 5.0500367e-08, No Iterations 4
smoothSolver:  Solving for e, Initial residual = 0.015471323, Final residual = 9.3939428e-06, No Iterations 2
smoothSolver:  Solving for p, Initial residual = 0.057615193, Final residual = 0.0018855925, No Iterations 2
diagonal:  Solving for rho, Initial residual = 0, Final residual = 0, No Iterations 0
time step continuity errors : sum local = 4.6562618e-06, global = -4.0612558e-07, cumulative = -5.2185782e-06
smoothSolver:  Solving for p, Initial residual = 0.0022023962, Final residual = 4.9036922e-06, No Iterations 5
diagonal:  Solving for rho, Initial residual = 0, Final residual = 0, No Iterations 0
time step continuity errors : sum local = 1.2160512e-08, global = -1.7789758e-09, cumulative = -5.2203572e-06
DILUPBiCGStab:  Solving for omega, Initial residual = 0.0025628095, Final residual = 1.142606e-11, No Iterations 1
smoothSolver:  Solving for k, Initial residual = 0.0050989775, Final residual = 5.1371454e-07, No Iterations 1
ExecutionTime = 9.89 s  ClockTime = 10 s

forceCoeffs forces write:
    Coefficient	Total	Pressure	Viscous	Internal
    Cd:	17.860044	17.782505	0.077538889	0
    Cd(f):	8.9301949	8.8914158	0.038779043	0
    Cd(r):	8.9298493	8.8910895	0.038759846	0
    Cl:	-0.00034552225	-0.00032632524	-1.9197001e-05	0
    Cl(f):	-0.00016986883	-0.00016316259	-6.7062353e-06	0
    Cl(r):	-0.00017565342	-0.00016316265	-1.2490766e-05	0
    CmPitch:	2.892297e-06	3.1754732e-11	2.8922652e-06	0
    CmRoll:	0.00017276112	0.00016316262	9.5985005e-06	0
    CmYaw:	8.9300221	8.8912526	0.038769445	0
    Cs:	5.8558461e-19	5.9217022e-19	-6.5856169e-21	0
    Cs(f):	8.9300221	8.8912526	0.038769445	0
    Cs(r):	-8.9300221	-8.8912526	-0.038769445	0

    writing force and moment coefficient files.

Courant Number mean: 0.023329689 max: 0.25118409
Time = 0.135

PIMPLE: iteration 1
diagonal:  Solving for rho, Initial residual = 0, Final residual = 0, No Iterations 0
smoothSolver:  Solving for Ux, Initial residual = 0.0039731906, Final residual = 2.0773522e-06, No Iterations 2
smoothSolver:  Solving for Uy, Initial residual = 0.040925396, Final residual = 5.016895e-08, No Iterations 4
smoothSolver:  Solving for e, Initial residual = 0.015203736, Final residual = 9.0641464e-06, No Iterations 2
smoothSolver:  Solving for p, Initial residual = 0.057141524, Final residual = 0.0015849466, No Iterations 2
diagonal:  Solving for rho, Initial residual = 0, Final residual = 0, No Iterations 0
time step continuity errors : sum local = 4.0227817e-06, global = -2.5902133e-07, cumulative = -5.4793785e-06
smoothSolver:  Solving for p, Initial residual = 0.0018560688, Final residual = 4.238967e-06, No Iterations 5
diagonal:  Solving for rho, Initial residual = 0, Final residual = 0, No Iterations 0
time step continuity errors : sum local = 1.1346148e-08, global = -1.3073206e-09, cumulative = -5.4806858e-06
DILUPBiCGStab:  Solving for omega, Initial residual = 0.0025404881, Final residual = 1.1532427e-11, No Iterations 1
smoothSolver:  Solving for k, Initial residual = 0.0048624932, Final residual = 4.860151e-07, No Iterations 1
ExecutionTime = 10.16 s  ClockTime = 10 s

forceCoeffs forces write:
    Coefficient	Total	Pressure	Viscous	Internal
    Cd:	17.747247	17.669788	0.077458675	0
    Cd(f):	8.8733478	8.8346091	0.03873869	0
    Cd(r):	8.873899	8.835179	0.038719985	0
    Cl:	0.000551239	0.00056994458	-1.8705579e-05	0
    Cl(f):	0.00027840304	0.00028497232	-6.5692873e-06	0
    Cl(r):	0.00027283597	0.00028497226	-1.2136292e-05	0
    CmPitch:	2.7835345e-06	3.2058579e-11	2.7835024e-06	0
    CmRoll:	-0.0002756195	-0.00028497229	9.3527897e-06	0
    CmYaw:	8.8736234	8.8348941	0.038729337	0
    Cs:	5.8557799e-19	5.9214838e-19	-6.5703885e-21	0
    Cs(f):	8.8736234	8.8348941	0.038729337	0
    Cs(r):	-8.8736234	-8.8348941	-0.038729337	0

    writing force and moment coefficient files.

Courant Number mean: 0.023304236 max: 0.24683223
Time = 0.14

PIMPLE: iteration 1
diagonal:  Solving for rho, Initial residual = 0, Final residual = 0, No Iterations 0
smoothSolver:  Solving for Ux, Initial residual = 0.0039826695, Final residual = 2.175724e-06, No Iterations 2
smoothSolver:  Solving for Uy, Initial residual = 0.039997772, Final residual = 4.9503844e-08, No Iterations 4
smoothSolver:  Solving for e, Initial residual = 0.015011203, Final residual = 8.5712291e-06, No Iterations 2
smoothSolver:  Solving for p, Initial residual = 0.055142434, Final residual = 0.0013270445, No Iterations 2
diagonal:  Solving for rho, Initial residual = 0, Final residual = 0, No Iterations 0
time step continuity errors : sum local = 3.6242322e-06, global = -1.7445296e-07, cumulative = -5.6551388e-06
smoothSolver:  Solving for p, Initial residual = 0.0016619473, Final residual = 3.8322353e-06, No Iterations 5
diagonal:  Solving for rho, Initial residual = 0, Final residual = 0, No Iterations 0
time step continuity errors : sum local = 1.097976e-08, global = -5.010999e-10, cumulative = -5.6556399e-06
DILUPBiCGStab:  Solving for omega, Initial residual = 0.0025192504, Final residual = 1.1463527e-11, No Iterations 1
smoothSolver:  Solving for k, Initial residual = 0.0046478195, Final residual = 4.6098024e-07, No Iterations 1
ExecutionTime = 10.44 s  ClockTime = 11 s

forceCoeffs forces write:
    Coefficient	Total	Pressure	Viscous	Internal
    Cd:	17.611631	17.534219	0.077412055	0
    Cd(f):	8.8053258	8.7666103	0.038715443	0
    Cd(r):	8.8063055	8.7676089	0.038696611	0
    Cl:	0.00097971504	0.00099854697	-1.8831935e-05	0
    Cl(f):	0.00049254962	0.00049927351	-6.7238886e-06	0
    Cl(r):	0.00048716542	0.00049927346	-1.2108046e-05	0
    CmPitch:	2.6921008e-06	2.2082652e-11	2.6920788e-06	0
    CmRoll:	-0.00048985752	-0.00049927349	9.4159674e-06	0
    CmYaw:	8.8058156	8.7671096	0.038706027	0
    Cs:	5.8565577e-19	5.9220951e-19	-6.5537484e-21	0
    Cs(f):	8.8058156	8.7671096	0.038706027	0
    Cs(r):	-8.8058156	-8.7671096	-0.038706027	0

    writing force and moment coefficient files.

Courant Number mean: 0.02327803 max: 0.24319037
Time = 0.145

PIMPLE: iteration 1
diagonal:  Solving for rho, Initial residual = 0, Final residual = 0, No Iterations 0
smoothSolver:  Solving for Ux, Initial residual = 0.0039426702, Final residual = 2.0278122e-06, No Iterations 2
smoothSolver:  Solving for Uy, Initial residual = 0.038624526, Final residual = 4.8561479e-08, No Iterations 4
smoothSolver:  Solving for e, Initial residual = 0.014940856, Final residual = 8.5800642e-06, No Iterations 2
smoothSolver:  Solving for p, Initial residual = 0.052224943, Final residual = 0.0012843433, No Iterations 2
diagonal:  Solving for rho, Initial residual = 0, Final residual = 0, No Iterations 0
time step continuity errors : sum local = 3.7463224e-06, global = -1.9721282e-07, cumulative = -5.8528527e-06
smoothSolver:  Solving for p, Initial residual = 0.0016288963, Final residual = 4.0204639e-06, No Iterations 5
diagonal:  Solving for rho, Initial residual = 0, Final residual = 0, No Iterations 0
time step continuity errors : sum local = 1.2274623e-08, global = 8.6352589e-11, cumulative = -5.8527663e-06
DILUPBiCGStab:  Solving for omega, Initial residual = 0.002497564, Final residual = 1.2105951e-11, No Iterations 1
smoothSolver:  Solving for k, Initial residual = 0.0044499971, Final residual = 4.4738828e-07, No Iterations 1
ExecutionTime = 10.71 s  ClockTime = 11 s

forceCoeffs forces write:
    Coefficient	Total	Pressure	Viscous	Internal
    Cd:	17.464194	17.386797	0.077397899	0
    Cd(f):	8.7317174	8.6930091	0.038708324	0
    Cd(r):	8.732477	8.6937875	0.038689575	0
    Cl:	0.00075964431	0.00077839304	-1.8748734e-05	0
    Cl(f):	0.00038253244	0.00038919653	-6.6640884e-06	0
    Cl(r):	0.00037711187	0.00038919651	-1.2084645e-05	0
    CmPitch:	2.7102873e-06	8.7750443e-12	2.7102785e-06	0
    CmRoll:	-0.00037982216	-0.00038919652	9.3743669e-06	0
    CmYaw:	8.7320972	8.6933983	0.03869895	0
    Cs:	5.8580922e-19	5.9234441e-19	-6.5351981e-21	0
    Cs(f):	8.7320972	8.6933983	0.03869895	0
    Cs(r):	-8.7320972	-8.6933983	-0.03869895	0

    writing force and moment coefficient files.

Courant Number mean: 0.023252714 max: 0.24049369
Time = 0.15

PIMPLE: iteration 1
diagonal:  Solving for rho, Initial residual = 0, Final residual = 0, No Iterations 0
smoothSolver:  Solving for Ux, Initial residual = 0.0039784808, Final residual = 2.0389683e-06, No Iterations 2
smoothSolver:  Solving for Uy, Initial residual = 0.037926172, Final residual = 4.7731021e-08, No Iterations 4
smoothSolver:  Solving for e, Initial residual = 0.014681408, Final residual = 8.3227631e-06, No Iterations 2
smoothSolver:  Solving for p, Initial residual = 0.049437463, Final residual = 0.0011430279, No Iterations 2
diagonal:  Solving for rho, Initial residual = 0, Final residual = 0, No Iterations 0
time step continuity errors : sum local = 3.5490834e-06, global = -2.2015354e-07, cumulative = -6.0729199e-06
smoothSolver:  Solving for p, Initial residual = 0.0015036129, Final residual = 4.371043e-06, No Iterations 5
diagonal:  Solving for rho, Initial residual = 0, Final residual = 0, No Iterations 0
time step continuity errors : sum local = 1.4203094e-08, global = 5.7658106e-10, cumulative = -6.0723433e-06
DILUPBiCGStab:  Solving for omega, Initial residual = 0.0024754999, Final residual = 1.2007156e-11, No Iterations 1
smoothSolver:  Solving for k, Initial residual = 0.0042682467, Final residual = 4.2546731e-07, No Iterations 1
ExecutionTime = 10.99 s  ClockTime = 11 s

forceCoeffs forces write:
    Coefficient	Total	Pressure	Viscous	Internal
    Cd:	17.32142	17.24402	0.07739994	0
    Cd(f):	8.6605053	8.6217962	0.038709071	0
    Cd(r):	8.6609152	8.6222243	0.038690869	0
    Cl:	0.00040992373	0.00042812579	-1.8202058e-05	0
    Cl(f):	0.00020778605	0.00021406289	-6.2768414e-06	0
    Cl(r):	0.00020213768	0.00021406289	-1.1925216e-05	0
    CmPitch:	2.8241869e-06	-4.3799289e-13	2.8241874e-06	0
    CmRoll:	-0.00020496186	-0.00021406289	9.1010288e-06	0
    CmYaw:	8.6607102	8.6220102	0.03869997	0
    Cs:	5.859239e-19	5.9243429e-19	-6.5103874e-21	0
    Cs(f):	8.6607102	8.6220102	0.03869997	0
    Cs(r):	-8.6607102	-8.6220102	-0.03869997	0

    writing force and moment coefficient files.

Courant Number mean: 0.023231249 max: 0.24512818
Time = 0.155

PIMPLE: iteration 1
diagonal:  Solving for rho, Initial residual = 0, Final residual = 0, No Iterations 0
smoothSolver:  Solving for Ux, Initial residual = 0.0040146906, Final residual = 2.0226982e-06, No Iterations 2
smoothSolver:  Solving for Uy, Initial residual = 0.037275512, Final residual = 4.7700097e-08, No Iterations 4
smoothSolver:  Solving for e, Initial residual = 0.014389058, Final residual = 8.0302211e-06, No Iterations 2
smoothSolver:  Solving for p, Initial residual = 0.047515643, Final residual = 0.00097883297, No Iterations 2
diagonal:  Solving for rho, Initial residual = 0, Final residual = 0, No Iterations 0
time step continuity errors : sum local = 3.2315804e-06, global = -2.1447683e-07, cumulative = -6.2868201e-06
smoothSolver:  Solving for p, Initial residual = 0.0013425266, Final residual = 4.4944095e-06, No Iterations 5
diagonal:  Solving for rho, Initial residual = 0, Final residual = 0, No Iterations 0
time step continuity errors : sum local = 1.5525248e-08, global = 1.0599733e-09, cumulative = -6.2857602e-06
DILUPBiCGStab:  Solving for omega, Initial residual = 0.0024542522, Final residual = 1.2435294e-11, No Iterations 1
smoothSolver:  Solving for k, Initial residual = 0.0041032195, Final residual = 4.0650232e-07, No Iterations 1
ExecutionTime = 11.27 s  ClockTime = 12 s

forceCoeffs forces write:
    Coefficient	Total	Pressure	Viscous	Internal
    Cd:	17.195078	17.117681	0.077396832	0
    Cd(f):	8.5972542	8.558547	0.038707148	0
    Cd(r):	8.597824	8.5591343	0.038689684	0
    Cl:	0.00056979235	0.00058725655	-1.7464198e-05	0
    Cl(f):	0.00028782993	0.00029362827	-5.7983456e-06	0
    Cl(r):	0.00028196242	0.00029362828	-1.1665852e-05	0
    CmPitch:	2.9337518e-06	-1.5532162e-12	2.9337533e-06	0
    CmRoll:	-0.00028489618	-0.00029362827	8.7320989e-06	0
    CmYaw:	8.5975391	8.5588407	0.038698416	0
    Cs:	5.8588186e-19	5.9236973e-19	-6.4878755e-21	0
    Cs(f):	8.5975391	8.5588407	0.038698416	0
    Cs(r):	-8.5975391	-8.5588407	-0.038698416	0

    writing force and moment coefficient files.

Courant Number mean: 0.023214821 max: 0.25320189
Time = 0.16

PIMPLE: iteration 1
diagonal:  Solving for rho, Initial residual = 0, Final residual = 0, No Iterations 0
smoothSolver:  Solving for Ux, Initial residual = 0.003989274, Final residual = 2.0272461e-06, No Iterations 2
smoothSolver:  Solving for Uy, Initial residual = 0.036276152, Final residual = 4.6798738e-08, No Iterations 4
smoothSolver:  Solving for e, Initial residual = 0.014301043, Final residual = 7.8278901e-06, No Iterations 2
smoothSolver:  Solving for p, Initial residual = 0.046058208, Final residual = 0.00088217335, No Iterations 2
diagonal:  Solving for rho, Initial residual = 0, Final residual = 0, No Iterations 0
time step continuity errors : sum local = 3.09285e-06, global = -2.0302747e-07, cumulative = -6.4887876e-06
smoothSolver:  Solving for p, Initial residual = 0.0012558633, Final residual = 4.6901179e-06, No Iterations 5
diagonal:  Solving for rho, Initial residual = 0, Final residual = 0, No Iterations 0
time step continuity errors : sum local = 1.7185983e-08, global = 1.5821893e-09, cumulative = -6.4872054e-06
DILUPBiCGStab:  Solving for omega, Initial residual = 0.0024333953, Final residual = 1.2736861e-11, No Iterations 1
smoothSolver:  Solving for k, Initial residual = 0.0039525116, Final residual = 3.8705063e-07, No Iterations 1
ExecutionTime = 11.54 s  ClockTime = 12 s

forceCoeffs forces write:
    Coefficient	Total	Pressure	Viscous	Internal
    Cd:	17.084738	17.007356	0.077381971	0
    Cd(f):	8.5415207	8.5028213	0.038699431	0
    Cd(r):	8.5432176	8.504535	0.03868254	0
    Cl:	0.0016968357	0.001713726	-1.6890281e-05	0
    Cl(f):	0.00085137118	0.00085686298	-5.4917975e-06	0
    Cl(r):	0.00084546449	0.00085686297	-1.1398484e-05	0
    CmPitch:	2.9533474e-06	4.2618188e-12	2.9533431e-06	0
    CmRoll:	-0.00084841784	-0.00085686298	8.4451406e-06	0
    CmYaw:	8.5423691	8.5036782	0.038690985	0
    Cs:	5.8561043e-19	5.9207969e-19	-6.469262e-21	0
    Cs(f):	8.5423691	8.5036782	0.038690985	0
    Cs(r):	-8.5423691	-8.5036782	-0.038690985	0

    writing force and moment coefficient files.

Courant Number mean: 0.023199994 max: 0.25778784
Time = 0.165

PIMPLE: iteration 1
diagonal:  Solving for rho, Initial residual = 0, Final residual = 0, No Iterations 0
smoothSolver:  Solving for Ux, Initial residual = 0.0039797765, Final residual = 2.0551248e-06, No Iterations 2
smoothSolver:  Solving for Uy, Initial residual = 0.035175378, Final residual = 4.6765355e-08, No Iterations 4
smoothSolver:  Solving for e, Initial residual = 0.014160221, Final residual = 7.8561876e-06, No Iterations 2
smoothSolver:  Solving for p, Initial residual = 0.043773854, Final residual = 0.00085418618, No Iterations 2
diagonal:  Solving for rho, Initial residual = 0, Final residual = 0, No Iterations 0
time step continuity errors : sum local = 3.1734606e-06, global = -1.8567552e-07, cumulative = -6.672881e-06
smoothSolver:  Solving for p, Initial residual = 0.0012295951, Final residual = 5.1610529e-06, No Iterations 5
diagonal:  Solving for rho, Initial residual = 0, Final residual = 0, No Iterations 0
time step continuity errors : sum local = 2.000351e-08, global = 2.1722826e-09, cumulative = -6.6707087e-06
DILUPBiCGStab:  Solving for omega, Initial residual = 0.0024131128, Final residual = 1.3049853e-11, No Iterations 1
smoothSolver:  Solving for k, Initial residual = 0.0038118117, Final residual = 3.7475825e-07, No Iterations 1
ExecutionTime = 11.82 s  ClockTime = 12 s

forceCoeffs forces write:
    Coefficient	Total	Pressure	Viscous	Internal
    Cd:	16.98278	16.90542	0.07735951	0
    Cd(f):	8.4894512	8.4507632	0.038688038	0
    Cd(r):	8.4933283	8.4546568	0.038671471	0
    Cl:	0.0038770742	0.0038936409	-1.6566757e-05	0
    Cl(f):	0.0019413666	0.0019468205	-5.4539117e-06	0
    Cl(r):	0.0019357076	0.0019468204	-1.1112845e-05	0
    CmPitch:	2.8294789e-06	1.2044867e-11	2.8294668e-06	0
    CmRoll:	-0.0019385371	-0.0019468205	8.2833786e-06	0
    CmYaw:	8.4913898	8.45271	0.038679755	0
    Cs:	5.8517765e-19	5.9163708e-19	-6.4594326e-21	0
    Cs(f):	8.4913898	8.45271	0.038679755	0
    Cs(r):	-8.4913898	-8.45271	-0.038679755	0

    writing force and moment coefficient files.

Courant Number mean: 0.023186721 max: 0.25913367
Time = 0.17

PIMPLE: iteration 1
diagonal:  Solving for rho, Initial residual = 0, Final residual = 0, No Iterations 0
smoothSolver:  Solving for Ux, Initial residual = 0.0040317948, Final residual = 2.0950235e-06, No Iterations 2
smoothSolver:  Solving for Uy, Initial residual = 0.034552826, Final residual = 4.7257852e-08, No Iterations 4
smoothSolver:  Solving for e, Initial residual = 0.013913609, Final residual = 7.7021206e-06, No Iterations 2
smoothSolver:  Solving for p, Initial residual = 0.041479605, Final residual = 0.00078166063, No Iterations 2
diagonal:  Solving for rho, Initial residual = 0, Final residual = 0, No Iterations 0
time step continuity errors : sum local = 3.0688052e-06, global = -1.5901074e-07, cumulative = -6.8297194e-06
smoothSolver:  Solving for p, Initial residual = 0.0011541134, Final residual = 5.7074784e-06, No Iterations 5
diagonal:  Solving for rho, Initial residual = 0, Final residual = 0, No Iterations 0
time step continuity errors : sum local = 2.3329081e-08, global = 2.8689004e-09, cumulative = -6.8268505e-06
DILUPBiCGStab:  Solving for omega, Initial residual = 0.0023935225, Final residual = 1.3216207e-11, No Iterations 1
smoothSolver:  Solving for k, Initial residual = 0.0036828761, Final residual = 3.5972607e-07, No Iterations 1
ExecutionTime = 12.1 s  ClockTime = 12 s

forceCoeffs forces write:
    Coefficient	Total	Pressure	Viscous	Internal
    Cd:	16.878428	16.801092	0.077336184	0
    Cd(f):	8.4357468	8.3970704	0.038676387	0
    Cd(r):	8.4426816	8.4040218	0.038659797	0
    Cl:	0.0069347585	0.0069513484	-1.6589899e-05	0
    Cl(f):	0.0034699473	0.0034756742	-5.7269036e-06	0
    Cl(r):	0.0034648112	0.0034756742	-1.0862995e-05	0
    CmPitch:	2.5680632e-06	1.7599063e-11	2.5680456e-06	0
    CmRoll:	-0.0034673793	-0.0034756742	8.2949493e-06	0
    CmYaw:	8.4392142	8.4005461	0.038668092	0
    Cs:	5.847488e-19	5.91203e-19	-6.4542058e-21	0
    Cs(f):	8.4392142	8.4005461	0.038668092	0
    Cs(r):	-8.4392142	-8.4005461	-0.038668092	0

    writing force and moment coefficient files.

Courant Number mean: 0.023173583 max: 0.25825854
Time = 0.175

PIMPLE: iteration 1
diagonal:  Solving for rho, Initial residual = 0, Final residual = 0, No Iterations 0
smoothSolver:  Solving for Ux, Initial residual = 0.004027869, Final residual = 2.1123573e-06, No Iterations 2
smoothSolver:  Solving for Uy, Initial residual = 0.033825275, Final residual = 4.686647e-08, No Iterations 4
smoothSolver:  Solving for e, Initial residual = 0.013618703, Final residual = 7.5593918e-06, No Iterations 2
smoothSolver:  Solving for p, Initial residual = 0.0403495, Final residual = 0.00071244735, No Iterations 2
diagonal:  Solving for rho, Initial residual = 0, Final residual = 0, No Iterations 0
time step continuity errors : sum local = 2.9472136e-06, global = -1.5360336e-07, cumulative = -6.9804539e-06
smoothSolver:  Solving for p, Initial residual = 0.0010962143, Final residual = 6.1361487e-06, No Iterations 5
diagonal:  Solving for rho, Initial residual = 0, Final residual = 0, No Iterations 0
time step continuity errors : sum local = 2.6381674e-08, global = 3.6462959e-09, cumulative = -6.9768076e-06
DILUPBiCGStab:  Solving for omega, Initial residual = 0.0023746497, Final residual = 1.3300064e-11, No Iterations 1
smoothSolver:  Solving for k, Initial residual = 0.003564216, Final residual = 3.4702292e-07, No Iterations 1
ExecutionTime = 12.37 s  ClockTime = 13 s

forceCoeffs forces write:
    Coefficient	Total	Pressure	Viscous	Internal
    Cd:	16.762819	16.685498	0.077320898	0
    Cd(f):	8.3761708	8.337502	0.038668775	0
    Cd(r):	8.386648	8.3479959	0.038652124	0
    Cl:	0.010477265	0.010493917	-1.6651434e-05	0
    Cl(f):	0.0052408357	0.0052469585	-6.1227612e-06	0
    Cl(r):	0.0052364298	0.0052469584	-1.0528673e-05	0
    CmPitch:	2.2029745e-06	1.8706126e-11	2.2029558e-06	0
    CmRoll:	-0.0052386327	-0.0052469585	8.3257171e-06	0
    CmYaw:	8.3814094	8.342749	0.038660449	0
    Cs:	5.8451784e-19	5.9097014e-19	-6.4522956e-21	0
    Cs(f):	8.3814094	8.342749	0.038660449	0
    Cs(r):	-8.3814094	-8.342749	-0.038660449	0

    writing force and moment coefficient files.

Courant Number mean: 0.023161403 max: 0.25640791
Time = 0.18

PIMPLE: iteration 1
diagonal:  Solving for rho, Initial residual = 0, Final residual = 0, No Iterations 0
smoothSolver:  Solving for Ux, Initial residual = 0.0040083855, Final residual = 2.1038454e-06, No Iterations 2
smoothSolver:  Solving for Uy, Initial residual = 0.032965093, Final residual = 4.6151376e-08, No Iterations 4
smoothSolver:  Solving for e, Initial residual = 0.013497982, Final residual = 7.6106552e-06, No Iterations 2
smoothSolver:  Solving for p, Initial residual = 0.039039127, Final residual = 0.0038059779, No Iterations 1
diagonal:  Solving for rho, Initial residual = 0, Final residual = 0, No Iterations 0
time step continuity errors : sum local = 1.6549999e-05, global = -1.1213846e-06, cumulative = -8.0981922e-06
smoothSolver:  Solving for p, Initial residual = 0.0038330321, Final residual = 6.5579043e-06, No Iterations 6
diagonal:  Solving for rho, Initial residual = 0, Final residual = 0, No Iterations 0
time step continuity errors : sum local = 2.9423836e-08, global = 4.2520238e-09, cumulative = -8.0939402e-06
DILUPBiCGStab:  Solving for omega, Initial residual = 0.0023568583, Final residual = 1.321644e-11, No Iterations 1
smoothSolver:  Solving for k, Initial residual = 0.0034543898, Final residual = 3.3449036e-07, No Iterations 1
ExecutionTime = 12.64 s  ClockTime = 13 s

forceCoeffs forces write:
    Coefficient	Total	Pressure	Viscous	Internal
    Cd:	16.6347	16.557377	0.077322724	0
    Cd(f):	8.3103369	8.2716676	0.038669261	0
    Cd(r):	8.3243631	8.2857097	0.038653463	0
    Cl:	0.014026241	0.014042039	-1.5797922e-05	0
    Cl(f):	0.0070149115	0.0070210194	-6.1079015e-06	0
    Cl(r):	0.0070113293	0.0070210193	-9.6900206e-06	0
    CmPitch:	1.7910759e-06	1.6414799e-11	1.7910595e-06	0
    CmRoll:	-0.0070131204	-0.0070210193	7.898961e-06	0
    CmYaw:	8.31735	8.2786886	0.038661362	0
    Cs:	5.8456593e-19	5.9101655e-19	-6.4506275e-21	0
    Cs(f):	8.31735	8.2786886	0.038661362	0
    Cs(r):	-8.31735	-8.2786886	-0.038661362	0

    writing force and moment coefficient files.

Courant Number mean: 0.023149384 max: 0.25713332
Time = 0.185

PIMPLE: iteration 1
diagonal:  Solving for rho, Initial residual = 0, Final residual = 0, No Iterations 0
smoothSolver:  Solving for Ux, Initial residual = 0.0040246738, Final residual = 2.1252466e-06, No Iterations 2
smoothSolver:  Solving for Uy, Initial residual = 0.032205145, Final residual = 4.6321764e-08, No Iterations 4
smoothSolver:  Solving for e, Initial residual = 0.013415074, Final residual = 7.6200122e-06, No Iterations 2
smoothSolver:  Solving for p, Initial residual = 0.037356136, Final residual = 0.0036073603, No Iterations 1
diagonal:  Solving for rho, Initial residual = 0, Final residual = 0, No Iterations 0
time step continuity errors : sum local = 1.645889e-05, global = -1.1659253e-06, cumulative = -9.2598655e-06
smoothSolver:  Solving for p, Initial residual = 0.0036573885, Final residual = 6.939476e-06, No Iterations 6
diagonal:  Solving for rho, Initial residual = 0, Final residual = 0, No Iterations 0
time step continuity errors : sum local = 3.2631239e-08, global = 4.8768197e-09, cumulative = -9.2549887e-06
[...]

forceCoeffs forces write:
    Coefficient	Total	Pressure	Viscous	Internal
    Cd:	5.5624032	5.4910057	0.07139749	0
    Cd(f):	3.1245334	3.0890796	0.03545381	0
    Cd(r):	2.4378698	2.4019261	0.03594368	0
    Cl:	-0.68666366	-0.68715353	0.00048987021	0
    Cl(f):	-0.34322117	-0.34357677	0.00035559332	0
    Cl(r):	-0.34344249	-0.34357677	0.00013427689	0
    CmPitch:	0.0001106582	-1.5578635e-11	0.00011065821	0
    CmRoll:	0.34333183	0.34357677	-0.0002449351	0
    CmYaw:	2.7812016	2.7455028	0.035698745	0
    Cs:	5.3897376e-19	5.4571228e-19	-6.7385257e-21	0
    Cs(f):	2.7812016	2.7455028	0.035698745	0
    Cs(r):	-2.7812016	-2.7455028	-0.035698745	0

    writing force and moment coefficient files.

Courant Number mean: 0.02413521 max: 0.39190414
Time = 1.135

PIMPLE: iteration 1
diagonal:  Solving for rho, Initial residual = 0, Final residual = 0, No Iterations 0
smoothSolver:  Solving for Ux, Initial residual = 0.0097774654, Final residual = 4.0306456e-06, No Iterations 2
smoothSolver:  Solving for Uy, Initial residual = 0.01025589, Final residual = 7.1090055e-06, No Iterations 2
smoothSolver:  Solving for e, Initial residual = 0.0080319589, Final residual = 3.7132994e-06, No Iterations 2
smoothSolver:  Solving for p, Initial residual = 0.012826571, Final residual = 0.00080086603, No Iterations 1
diagonal:  Solving for rho, Initial residual = 0, Final residual = 0, No Iterations 0
time step continuity errors : sum local = 2.2880853e-05, global = -6.7377176e-07, cumulative = -0.000140587
smoothSolver:  Solving for p, Initial residual = 0.00091333854, Final residual = 6.1949606e-06, No Iterations 5
diagonal:  Solving for rho, Initial residual = 0, Final residual = 0, No Iterations 0
time step continuity errors : sum local = 1.7711729e-07, global = -1.7644398e-08, cumulative = -0.00014060464
DILUPBiCGStab:  Solving for omega, Initial residual = 0.00096458018, Final residual = 3.8164328e-13, No Iterations 2
smoothSolver:  Solving for k, Initial residual = 0.00069846745, Final residual = 3.1842242e-07, No Iterations 1
ExecutionTime = 66.56 s  ClockTime = 67 s

forceCoeffs forces write:
    Coefficient	Total	Pressure	Viscous	Internal
    Cd:	5.5289318	5.4576052	0.071326628	0
    Cd(f):	3.1167495	3.0813208	0.035428656	0
    Cd(r):	2.4121823	2.3762844	0.035897972	0
    Cl:	-0.70456717	-0.70503648	0.00046931644	0
    Cl(f):	-0.35216859	-0.35251824	0.00034965214	0
    Cl(r):	-0.35239858	-0.35251824	0.0001196643	0
    CmPitch:	0.00011499401	9.2041641e-11	0.00011499392	0
    CmRoll:	0.35228358	0.35251824	-0.00023465822	0
    CmYaw:	2.7644659	2.7288026	0.035663314	0
    Cs:	5.5576259e-19	5.6266785e-19	-6.9052581e-21	0
    Cs(f):	2.7644659	2.7288026	0.035663314	0
    Cs(r):	-2.7644659	-2.7288026	-0.035663314	0

    writing force and moment coefficient files.

Courant Number mean: 0.024149364 max: 0.3914964
Time = 1.14

PIMPLE: iteration 1
diagonal:  Solving for rho, Initial residual = 0, Final residual = 0, No Iterations 0
smoothSolver:  Solving for Ux, Initial residual = 0.0098571992, Final residual = 4.0237634e-06, No Iterations 2
smoothSolver:  Solving for Uy, Initial residual = 0.010156206, Final residual = 6.8520022e-06, No Iterations 2
smoothSolver:  Solving for e, Initial residual = 0.0080593948, Final residual = 3.8115432e-06, No Iterations 2
smoothSolver:  Solving for p, Initial residual = 0.012826139, Final residual = 0.00080955662, No Iterations 1
diagonal:  Solving for rho, Initial residual = 0, Final residual = 0, No Iterations 0
time step continuity errors : sum local = 2.317254e-05, global = -6.6555013e-07, cumulative = -0.00014127019
smoothSolver:  Solving for p, Initial residual = 0.00092065691, Final residual = 6.7225775e-06, No Iterations 5
diagonal:  Solving for rho, Initial residual = 0, Final residual = 0, No Iterations 0
time step continuity errors : sum local = 1.9255252e-07, global = -1.3767955e-08, cumulative = -0.00014128396
DILUPBiCGStab:  Solving for omega, Initial residual = 0.0009640789, Final residual = 4.115088e-13, No Iterations 2
smoothSolver:  Solving for k, Initial residual = 0.00069586375, Final residual = 3.3182764e-07, No Iterations 1
ExecutionTime = 66.86 s  ClockTime = 67 s

forceCoeffs forces write:
    Coefficient	Total	Pressure	Viscous	Internal
    Cd:	5.4739488	5.4026909	0.07125796	0
    Cd(f):	3.1054918	3.0700785	0.035413286	0
    Cd(r):	2.3684571	2.3326124	0.035844674	0
    Cl:	-0.7370347	-0.73746608	0.00043138823	0
    Cl(f):	-0.36839681	-0.36873304	0.00033623375	0
    Cl(r):	-0.36863789	-0.36873304	9.5154474e-05	0
    CmPitch:	0.00012053982	1.8461647e-10	0.00012053964	0
    CmRoll:	0.36851735	0.36873304	-0.00021569411	0
    CmYaw:	2.7369744	2.7013454	0.03562898	0
    Cs:	5.6985622e-19	5.7688948e-19	-7.0332583e-21	0
    Cs(f):	2.7369744	2.7013454	0.03562898	0
    Cs(r):	-2.7369744	-2.7013454	-0.03562898	0

    writing force and moment coefficient files.

Courant Number mean: 0.024160119 max: 0.39106947
Time = 1.145

PIMPLE: iteration 1
diagonal:  Solving for rho, Initial residual = 0, Final residual = 0, No Iterations 0
smoothSolver:  Solving for Ux, Initial residual = 0.0099096863, Final residual = 4.0400053e-06, No Iterations 2
smoothSolver:  Solving for Uy, Initial residual = 0.010173253, Final residual = 6.7789218e-06, No Iterations 2
smoothSolver:  Solving for e, Initial residual = 0.0080588766, Final residual = 3.7435662e-06, No Iterations 2
smoothSolver:  Solving for p, Initial residual = 0.012799053, Final residual = 0.00079915462, No Iterations 1
diagonal:  Solving for rho, Initial residual = 0, Final residual = 0, No Iterations 0
time step continuity errors : sum local = 2.2916243e-05, global = -6.3545187e-07, cumulative = -0.00014191941
smoothSolver:  Solving for p, Initial residual = 0.00091048128, Final residual = 6.5919568e-06, No Iterations 5
diagonal:  Solving for rho, Initial residual = 0, Final residual = 0, No Iterations 0
time step continuity errors : sum local = 1.8915668e-07, global = -1.0170995e-08, cumulative = -0.00014192958
DILUPBiCGStab:  Solving for omega, Initial residual = 0.00096106332, Final residual = 3.4959029e-13, No Iterations 2
smoothSolver:  Solving for k, Initial residual = 0.00069423617, Final residual = 3.4665614e-07, No Iterations 1
ExecutionTime = 67.15 s  ClockTime = 67 s

forceCoeffs forces write:
    Coefficient	Total	Pressure	Viscous	Internal
    Cd:	5.4091993	5.3380054	0.071193856	0
    Cd(f):	3.0998694	3.0644645	0.035404887	0
    Cd(r):	2.3093299	2.2735409	0.035788969	0
    Cl:	-0.79053948	-0.79092356	0.00038408174	0
    Cl(f):	-0.39513837	-0.39546178	0.00032340915	0
    Cl(r):	-0.39540111	-0.39546178	6.0672581e-05	0
    CmPitch:	0.00013136851	2.2732718e-10	0.00013136829	0
    CmRoll:	0.39526974	0.39546178	-0.00019204087	0
    CmYaw:	2.7045997	2.6690027	0.035596928	0
    Cs:	5.78524e-19	5.8554564e-19	-7.0216407e-21	0
    Cs(f):	2.7045997	2.6690027	0.035596928	0
    Cs(r):	-2.7045997	-2.6690027	-0.035596928	0

    writing force and moment coefficient files.

Courant Number mean: 0.024165812 max: 0.39394502
Time = 1.15

PIMPLE: iteration 1
diagonal:  Solving for rho, Initial residual = 0, Final residual = 0, No Iterations 0
smoothSolver:  Solving for Ux, Initial residual = 0.0099498408, Final residual = 4.0220394e-06, No Iterations 2
smoothSolver:  Solving for Uy, Initial residual = 0.010231398, Final residual = 6.7460129e-06, No Iterations 2
smoothSolver:  Solving for e, Initial residual = 0.0080402561, Final residual = 3.7502292e-06, No Iterations 2
smoothSolver:  Solving for p, Initial residual = 0.012767547, Final residual = 0.00077337277, No Iterations 1
diagonal:  Solving for rho, Initial residual = 0, Final residual = 0, No Iterations 0
time step continuity errors : sum local = 2.2216503e-05, global = -6.0061416e-07, cumulative = -0.0001425302
smoothSolver:  Solving for p, Initial residual = 0.00088409238, Final residual = 5.6851711e-06, No Iterations 5
diagonal:  Solving for rho, Initial residual = 0, Final residual = 0, No Iterations 0
time step continuity errors : sum local = 1.6342977e-07, global = -8.6976746e-09, cumulative = -0.0001425389
DILUPBiCGStab:  Solving for omega, Initial residual = 0.00095390028, Final residual = 3.0391097e-13, No Iterations 2
smoothSolver:  Solving for k, Initial residual = 0.00069209309, Final residual = 3.6240206e-07, No Iterations 1
ExecutionTime = 67.45 s  ClockTime = 68 s

forceCoeffs forces write:
    Coefficient	Total	Pressure	Viscous	Internal
    Cd:	5.354342	5.283209	0.071132984	0
    Cd(f):	3.1084491	3.073051	0.035398049	0
    Cd(r):	2.2458929	2.210158	0.035734935	0
    Cl:	-0.86255618	-0.86289306	0.00033688644	0
    Cl(f):	-0.43112835	-0.43144653	0.00031817638	0
    Cl(r):	-0.43142782	-0.43144653	1.8710057e-05	0
    CmPitch:	0.00014973338	2.1354493e-10	0.00014973316	0
    CmRoll:	0.43127809	0.43144653	-0.00016844322	0
    CmYaw:	2.677171	2.6416045	0.035566492	0
    Cs:	5.8018916e-19	5.8719022e-19	-7.0010588e-21	0
    Cs(f):	2.677171	2.6416045	0.035566492	0
    Cs(r):	-2.677171	-2.6416045	-0.035566492	0

    writing force and moment coefficient files.

Courant Number mean: 0.02417215 max: 0.39153726
Time = 1.155

PIMPLE: iteration 1
diagonal:  Solving for rho, Initial residual = 0, Final residual = 0, No Iterations 0
smoothSolver:  Solving for Ux, Initial residual = 0.010000349, Final residual = 4.0180419e-06, No Iterations 2
smoothSolver:  Solving for Uy, Initial residual = 0.01028488, Final residual = 6.8646086e-06, No Iterations 2
smoothSolver:  Solving for e, Initial residual = 0.0080181049, Final residual = 3.651445e-06, No Iterations 2
smoothSolver:  Solving for p, Initial residual = 0.012763987, Final residual = 0.00077052144, No Iterations 1
diagonal:  Solving for rho, Initial residual = 0, Final residual = 0, No Iterations 0
time step continuity errors : sum local = 2.2173449e-05, global = -5.745278e-07, cumulative = -0.00014311342
smoothSolver:  Solving for p, Initial residual = 0.00088042924, Final residual = 5.3106494e-06, No Iterations 5
diagonal:  Solving for rho, Initial residual = 0, Final residual = 0, No Iterations 0
time step continuity errors : sum local = 1.5293322e-07, global = -1.0785028e-08, cumulative = -0.00014312421
DILUPBiCGStab:  Solving for omega, Initial residual = 0.00095202863, Final residual = 9.9776032e-11, No Iterations 1
smoothSolver:  Solving for k, Initial residual = 0.00069082924, Final residual = 3.713934e-07, No Iterations 1
ExecutionTime = 67.77 s  ClockTime = 68 s

forceCoeffs forces write:
    Coefficient	Total	Pressure	Viscous	Internal
    Cd:	5.3271886	5.2561189	0.071069635	0
    Cd(f):	3.1356981	3.1003114	0.035386761	0
    Cd(r):	2.1914904	2.1558075	0.035682873	0
    Cl:	-0.94420771	-0.94450383	0.00029611164	0
    Cl(f):	-0.47192905	-0.47225191	0.000322858	0
    Cl(r):	-0.47227866	-0.47225191	-2.6746357e-05	0
    CmPitch:	0.00017480232	1.4297923e-10	0.00017480218	0
    CmRoll:	0.47210386	0.47225191	-0.00014805582	0
    CmYaw:	2.6635943	2.6280595	0.035534817	0
    Cs:	5.7553965e-19	5.8228483e-19	-6.7451787e-21	0
    Cs(f):	2.6635943	2.6280595	0.035534817	0
    Cs(r):	-2.6635943	-2.6280595	-0.035534817	0

    writing force and moment coefficient files.

Courant Number mean: 0.024186149 max: 0.39047045
Time = 1.16

PIMPLE: iteration 1
diagonal:  Solving for rho, Initial residual = 0, Final residual = 0, No Iterations 0
smoothSolver:  Solving for Ux, Initial residual = 0.010059402, Final residual = 4.0572772e-06, No Iterations 2
smoothSolver:  Solving for Uy, Initial residual = 0.010293107, Final residual = 7.2108653e-06, No Iterations 2
smoothSolver:  Solving for e, Initial residual = 0.008042413, Final residual = 3.6237041e-06, No Iterations 2
smoothSolver:  Solving for p, Initial residual = 0.012836077, Final residual = 0.00079195518, No Iterations 1
diagonal:  Solving for rho, Initial residual = 0, Final residual = 0, No Iterations 0
time step continuity errors : sum local = 2.2830098e-05, global = -5.7663149e-07, cumulative = -0.00014370084
smoothSolver:  Solving for p, Initial residual = 0.00090270391, Final residual = 5.8862904e-06, No Iterations 5
diagonal:  Solving for rho, Initial residual = 0, Final residual = 0, No Iterations 0
time step continuity errors : sum local = 1.6980496e-07, global = -1.911314e-08, cumulative = -0.00014371995
DILUPBiCGStab:  Solving for omega, Initial residual = 0.00095360143, Final residual = 2.5433701e-13, No Iterations 2
smoothSolver:  Solving for k, Initial residual = 0.000688021, Final residual = 3.7790976e-07, No Iterations 1
ExecutionTime = 68.05 s  ClockTime = 68 s

forceCoeffs forces write:
    Coefficient	Total	Pressure	Viscous	Internal
    Cd:	5.3331443	5.2621478	0.070996454	0
    Cd(f):	3.1792404	3.1438738	0.035366568	0
    Cd(r):	2.1539039	2.118274	0.035629886	0
    Cl:	-1.0253365	-1.0255998	0.00026331752	0
    Cl(f):	-0.51246456	-0.51279991	0.00033535156	0
    Cl(r):	-0.51287194	-0.51279991	-7.2034044e-05	0
    CmPitch:	0.00020369283	2.7917779e-11	0.0002036928	0
    CmRoll:	0.51266825	0.51279991	-0.00013165876	0
    CmYaw:	2.6665721	2.6310739	0.035498227	0
    Cs:	5.665349e-19	5.7324463e-19	-6.7097256e-21	0
    Cs(f):	2.6665721	2.6310739	0.035498227	0
    Cs(r):	-2.6665721	-2.6310739	-0.035498227	0

    writing force and moment coefficient files.

Courant Number mean: 0.024200464 max: 0.39061178
Time = 1.165

PIMPLE: iteration 1
diagonal:  Solving for rho, Initial residual = 0, Final residual = 0, No Iterations 0
smoothSolver:  Solving for Ux, Initial residual = 0.010123176, Final residual = 4.0768413e-06, No Iterations 2
smoothSolver:  Solving for Uy, Initial residual = 0.010285476, Final residual = 7.4191516e-06, No Iterations 2
smoothSolver:  Solving for e, Initial residual = 0.0080905462, Final residual = 3.8054413e-06, No Iterations 2
smoothSolver:  Solving for p, Initial residual = 0.012898406, Final residual = 0.000813649, No Iterations 1
diagonal:  Solving for rho, Initial residual = 0, Final residual = 0, No Iterations 0
time step continuity errors : sum local = 2.3495624e-05, global = -5.8578239e-07, cumulative = -0.00014430574
smoothSolver:  Solving for p, Initial residual = 0.00092334084, Final residual = 6.5749444e-06, No Iterations 5
diagonal:  Solving for rho, Initial residual = 0, Final residual = 0, No Iterations 0
time step continuity errors : sum local = 1.8998583e-07, global = -2.8180864e-08, cumulative = -0.00014433392
DILUPBiCGStab:  Solving for omega, Initial residual = 0.00095399539, Final residual = 5.0558943e-13, No Iterations 2
smoothSolver:  Solving for k, Initial residual = 0.0006855974, Final residual = 3.7137611e-07, No Iterations 1
ExecutionTime = 68.33 s  ClockTime = 69 s

forceCoeffs forces write:
    Coefficient	Total	Pressure	Viscous	Internal
    Cd:	5.3615317	5.2906242	0.070907469	0
    Cd(f):	3.2298556	3.1945204	0.035335198	0
    Cd(r):	2.1316761	2.0961039	0.035572271	0
    Cl:	-1.0981794	-1.0984165	0.00023707298	0
    Cl(f):	-0.54885673	-0.54920826	0.00035152715	0
    Cl(r):	-0.54932271	-0.54920826	-0.00011445418	0
    CmPitch:	0.00023299056	-1.0152186e-10	0.00023299066	0
    CmRoll:	0.54908972	0.54920826	-0.00011853649	0
    CmYaw:	2.6807658	2.6453121	0.035453735	0
    Cs:	5.5603214e-19	5.6275518e-19	-6.7230375e-21	0
    Cs(f):	2.6807658	2.6453121	0.035453735	0
    Cs(r):	-2.6807658	-2.6453121	-0.035453735	0

    writing force and moment coefficient files.

Courant Number mean: 0.024212116 max: 0.39087791
Time = 1.17

PIMPLE: iteration 1
diagonal:  Solving for rho, Initial residual = 0, Final residual = 0, No Iterations 0
smoothSolver:  Solving for Ux, Initial residual = 0.010185943, Final residual = 4.1153363e-06, No Iterations 2
smoothSolver:  Solving for Uy, Initial residual = 0.010271824, Final residual = 7.3873654e-06, No Iterations 2
smoothSolver:  Solving for e, Initial residual = 0.0081288811, Final residual = 3.8595926e-06, No Iterations 2
smoothSolver:  Solving for p, Initial residual = 0.012947867, Final residual = 0.00081980105, No Iterations 1
diagonal:  Solving for rho, Initial residual = 0, Final residual = 0, No Iterations 0
time step continuity errors : sum local = 2.3712783e-05, global = -5.8098208e-07, cumulative = -0.0001449149
smoothSolver:  Solving for p, Initial residual = 0.00092909438, Final residual = 6.9514152e-06, No Iterations 5
diagonal:  Solving for rho, Initial residual = 0, Final residual = 0, No Iterations 0
time step continuity errors : sum local = 2.0120017e-07, global = -3.3382186e-08, cumulative = -0.00014494828
DILUPBiCGStab:  Solving for omega, Initial residual = 0.00095020046, Final residual = 5.5873384e-13, No Iterations 2
smoothSolver:  Solving for k, Initial residual = 0.00068000503, Final residual = 3.5493557e-07, No Iterations 1
ExecutionTime = 68.64 s  ClockTime = 69 s

forceCoeffs forces write:
    Coefficient	Total	Pressure	Viscous	Internal
    Cd:	5.3895503	5.318749	0.070801315	0
    Cd(f):	3.2744306	3.2391376	0.035293053	0
    Cd(r):	2.1151197	2.0796114	0.035508262	0
    Cl:	-1.1593109	-1.1595262	0.00021520884	0
    Cl(f):	-0.57939586	-0.57976308	0.0003672138	0
    Cl(r):	-0.57991508	-0.57976308	-0.00015200496	0
    CmPitch:	0.00025960918	-2.0265553e-10	0.00025960938	0
    CmRoll:	0.57965547	0.57976308	-0.00010760442	0
    CmYaw:	2.6947752	2.6593745	0.035400658	0
    Cs:	5.4631342e-19	5.5288218e-19	-6.5687549e-21	0
    Cs(f):	2.6947752	2.6593745	0.035400658	0
    Cs(r):	-2.6947752	-2.6593745	-0.035400658	0

    writing force and moment coefficient files.

Courant Number mean: 0.024219386 max: 0.39120001
Time = 1.175

PIMPLE: iteration 1
diagonal:  Solving for rho, Initial residual = 0, Final residual = 0, No Iterations 0
smoothSolver:  Solving for Ux, Initial residual = 0.010243123, Final residual = 4.0849373e-06, No Iterations 2
smoothSolver:  Solving for Uy, Initial residual = 0.010354991, Final residual = 7.6559344e-06, No Iterations 2
smoothSolver:  Solving for e, Initial residual = 0.0081461834, Final residual = 3.8542357e-06, No Iterations 2
smoothSolver:  Solving for p, Initial residual = 0.012936534, Final residual = 0.00080372921, No Iterations 1
diagonal:  Solving for rho, Initial residual = 0, Final residual = 0, No Iterations 0
time step continuity errors : sum local = 2.3286853e-05, global = -5.6573586e-07, cumulative = -0.00014551402
smoothSolver:  Solving for p, Initial residual = 0.00091234549, Final residual = 6.5290445e-06, No Iterations 5
diagonal:  Solving for rho, Initial residual = 0, Final residual = 0, No Iterations 0
time step continuity errors : sum local = 1.8930261e-07, global = -3.1291849e-08, cumulative = -0.00014554531
DILUPBiCGStab:  Solving for omega, Initial residual = 0.00094088319, Final residual = 5.3296713e-13, No Iterations 2
smoothSolver:  Solving for k, Initial residual = 0.00067310837, Final residual = 3.3235531e-07, No Iterations 1
ExecutionTime = 68.94 s  ClockTime = 69 s

forceCoeffs forces write:
    Coefficient	Total	Pressure	Viscous	Internal
    Cd:	5.3917087	5.321024	0.070684669	0
    Cd(f):	3.3001476	3.2649044	0.035243211	0
    Cd(r):	2.091561	2.0561196	0.035441457	0
    Cl:	-1.2085866	-1.2087848	0.00019824609	0
    Cl(f):	-0.60401179	-0.60439242	0.00038062451	0
    Cl(r):	-0.60457479	-0.60439242	-0.00018237842	0
    CmPitch:	0.00028150121	-2.4972844e-10	0.00028150146	0
    CmRoll:	0.60429329	0.60439242	-9.9123045e-05	0
    CmYaw:	2.6958543	2.660512	0.035342334	0
    Cs:	5.3897365e-19	5.4553586e-19	-6.5622127e-21	0
    Cs(f):	2.6958543	2.660512	0.035342334	0
    Cs(r):	-2.6958543	-2.660512	-0.035342334	0

    writing force and moment coefficient files.

Courant Number mean: 0.024223285 max: 0.39150881
Time = 1.18

PIMPLE: iteration 1
diagonal:  Solving for rho, Initial residual = 0, Final residual = 0, No Iterations 0
smoothSolver:  Solving for Ux, Initial residual = 0.010299749, Final residual = 4.067847e-06, No Iterations 2
smoothSolver:  Solving for Uy, Initial residual = 0.010416373, Final residual = 7.610471e-06, No Iterations 2
smoothSolver:  Solving for e, Initial residual = 0.008138086, Final residual = 3.7925636e-06, No Iterations 2
